/*---------------------------------------------------------------------------*\
| =========                 |                                                 |
| \\      /  F ield         | OpenFOAM: The Open Source CFD Toolbox           |
|  \\    /   O peration     | Version:  2006                                  |
|   \\  /    A nd           | Website:  www.openfoam.com                      |
|    \\/     M anipulation  |                                                 |
\*---------------------------------------------------------------------------*/
Build  : _e91649cfd8-20210420 OPENFOAM=2006 patch=210414
Arch   : "LSB;label=32;scalar=64"
Exec   : simpleFoam -parallel
Date   : Jun 12 2025
Time   : 23:43:24
Host   : DESKTOP-5M0OUQ4
PID    : 23393
I/O    : uncollated
Case   : /home/kaspermasure/Linux_thesis/LEI_profile_aero/scripts/openfoam_runs_pointwise/AOA_10
nProcs : 4
Hosts  :
(
    (DESKTOP-5M0OUQ4 4)
)
Pstream initialized with:
    floatTransfer      : 0
    nProcsSimpleSum    : 0
    commsType          : nonBlocking
    polling iterations : 0
trapFpe: Floating point exception trapping enabled (FOAM_SIGFPE).
fileModificationChecking : Monitoring run-time modified files using timeStampMaster (fileModificationSkew 5, maxFileModificationPolls 20)
allowSystemOperations : Allowing user-supplied system call operations

// * * * * * * * * * * * * * * * * * * * * * * * * * * * * * * * * * * * * * //
Create time

Create mesh for time = 1


SIMPLE: convergence criteria
    field p	 tolerance 8e-07
    field U	 tolerance 8e-07
    field "(k|omega)"	 tolerance 8e-07

Reading field p

Reading field U

Reading/calculating face flux field phi

Selecting incompressible transport model Newtonian
Selecting turbulence model type RAS
Selecting RAS turbulence model kOmegaSST
Selecting patchDistMethod meshWave
bounding k, min: 0 max: 0.0006000000000000001 average: 0.000600000000000157
RAS
{
    RASModel        kOmegaSST;
    turbulence      on;
    printCoeffs     on;
    alphaK1         0.85;
    alphaK2         1;
    alphaOmega1     0.5;
    alphaOmega2     0.856;
    gamma1          0.5555555555555556;
    gamma2          0.44;
    beta1           0.075;
    beta2           0.0828;
    betaStar        0.09;
    a1              0.31;
    b1              1;
    c1              10;
    F3              false;
    decayControl    false;
    kInf            0;
    omegaInf        0;
}

No MRF models present

No finite volume options present

Starting time loop

forceCoeffs forceCoeffs:
    p: p
    U: U
    rho: rhoInf
    Freestream density (rhoInf) set to 1
    Not including porosity effects

wallShearStress wallShearStress:
    processing all wall patches

Time = 2

smoothSolver:  Solving for Ux, Initial residual = 0.9999964568841483, Final residual = 0.05489915639430173, No Iterations 4
smoothSolver:  Solving for Uy, Initial residual = 0.9999976771262695, Final residual = 0.05604185216135889, No Iterations 4
GAMG:  Solving for p, Initial residual = 1, Final residual = 0.0963962652949268, No Iterations 80
time step continuity errors : sum local = 1.51094135718874e-10, global = 1.091244785528114e-10, cumulative = 1.091244785528114e-10
smoothSolver:  Solving for omega, Initial residual = 0.02037636947369254, Final residual = 3.027834571865908e-08, No Iterations 1
smoothSolver:  Solving for k, Initial residual = 0.9999999999992515, Final residual = 4.590031415161416e-06, No Iterations 1
bounding k, min: 0 max: 0.003905621533458206 average: 0.0004084897786958723
ExecutionTime = 1.23 s  ClockTime = 1 s

forceCoeffs forceCoeffs execute:
    Coefficients
        Cd       : 11.35486377478287	(pressure: 11.2707022714913	viscous: 0.08416150329156291)
        Cs       : 1.037763351348467e-20	(pressure: 4.515718378763908e-21	viscous: 5.861915134720762e-21)
        Cl       : 18.63097875363584	(pressure: 18.64347315265782	viscous: -0.01249439902197894)
        CmRoll       : -18.63097875363584	(pressure: -18.64347315265782	viscous: 0.01249439902197894)
        CmPitch       : -7.40846963360907	(pressure: -7.413955232902493	viscous: 0.005485599293422747)
        CmYaw       : 11.35486377478286	(pressure: 11.2707022714913	viscous: 0.08416150329156288)
        Cd(f)    : -12.95354686624441
        Cd(r)    : 24.30841064102728
        Cs(f)    : 11.35486377478286
        Cs(r)    : -11.35486377478286
        Cl(f)    : 1.907019743208852
        Cl(r)    : 16.72395901042699
Time = 3

smoothSolver:  Solving for Ux, Initial residual = 9.356992883667297e-05, Final residual = 5.058987229756787e-06, No Iterations 2
smoothSolver:  Solving for Uy, Initial residual = 0.000111188148095091, Final residual = 5.952104361008644e-06, No Iterations 2
GAMG:  Solving for p, Initial residual = 0.001505636733387086, Final residual = 0.0001430203514806405, No Iterations 50
time step continuity errors : sum local = 3.348930649341612e-09, global = 2.491413902318843e-09, cumulative = 2.600538380871654e-09
smoothSolver:  Solving for omega, Initial residual = 0.004152809330595921, Final residual = 2.079289692169593e-08, No Iterations 1
smoothSolver:  Solving for k, Initial residual = 0.2161766658200905, Final residual = 3.418615710044138e-06, No Iterations 1
bounding k, min: 0 max: 0.02605899262659164 average: 0.0003530900744499104
ExecutionTime = 1.65 s  ClockTime = 2 s

forceCoeffs forceCoeffs execute:
    Coefficients
        Cd       : 1.209826242226633	(pressure: 1.197386718546054	viscous: 0.01243952368057851)
        Cs       : -4.972663509891871e-21	(pressure: -2.424833211645123e-21	viscous: -2.547830298246748e-21)
        Cl       : -0.395610125333228	(pressure: -0.3114052515280386	viscous: -0.08420487380518939)
        CmRoll       : 0.395610125333228	(pressure: 0.3114052515280386	viscous: 0.08420487380518939)
        CmPitch       : -0.08106141913420811	(pressure: -0.1138379862801364	viscous: 0.03277656714592829)
        CmYaw       : 1.209826242226633	(pressure: 1.197386718546054	viscous: 0.01243952368057851)
        Cd(f)    : 1.000523246446544
        Cd(r)    : 0.2093029957800883
        Cs(f)    : 1.209826242226633
        Cs(r)    : -1.209826242226633
        Cl(f)    : -0.2788664818008221
        Cl(r)    : -0.1167436435324059
Time = 4

smoothSolver:  Solving for Ux, Initial residual = 1.843846765325113e-05, Final residual = 7.97183508689576e-07, No Iterations 2
smoothSolver:  Solving for Uy, Initial residual = 3.426382047657402e-05, Final residual = 1.473149380681632e-06, No Iterations 2
GAMG:  Solving for p, Initial residual = 0.0003339684423957233, Final residual = 3.261460396546456e-05, No Iterations 56
time step continuity errors : sum local = 1.481961953304746e-09, global = 1.073658563844197e-09, cumulative = 3.674196944715852e-09
smoothSolver:  Solving for omega, Initial residual = 0.001222201691654809, Final residual = 2.115655383899541e-08, No Iterations 1
smoothSolver:  Solving for k, Initial residual = 0.05942970902585873, Final residual = 3.39992451133683e-06, No Iterations 1
bounding k, min: 0 max: 0.055543110078601 average: 0.0003277140702922105
ExecutionTime = 2.07 s  ClockTime = 2 s

forceCoeffs forceCoeffs execute:
    Coefficients
        Cd       : 0.6634669248164943	(pressure: 0.635514470652805	viscous: 0.02795245416368934)
        Cs       : -2.646306883507448e-21	(pressure: -1.790057094332726e-21	viscous: -8.562497891747224e-22)
        Cl       : 1.589716442494567	(pressure: 1.613104004803209	viscous: -0.02338756230864237)
        CmRoll       : -1.589716442494567	(pressure: -1.613104004803209	viscous: 0.02338756230864237)
        CmPitch       : -0.1611930433192286	(pressure: -0.1705026891677383	viscous: 0.009309645848509733)
        CmYaw       : 0.6634669248164941	(pressure: 0.6355144706528048	viscous: 0.02795245416368934)
        Cd(f)    : -1.25798298008632
        Cd(r)    : 1.921449904902814
        Cs(f)    : 0.6634669248164941
        Cs(r)    : -0.6634669248164941
        Cl(f)    : 0.6336651779280549
        Cl(r)    : 0.956051264566512
Time = 5

smoothSolver:  Solving for Ux, Initial residual = 1.095747758907132e-05, Final residual = 3.784849123830622e-07, No Iterations 2
smoothSolver:  Solving for Uy, Initial residual = 1.685322956034836e-05, Final residual = 6.672637685478903e-07, No Iterations 2
GAMG:  Solving for p, Initial residual = 0.0005420065312700067, Final residual = 5.226784120435972e-05, No Iterations 62
time step continuity errors : sum local = 7.456285180936004e-10, global = 5.521875799511701e-10, cumulative = 4.226384524667022e-09
smoothSolver:  Solving for omega, Initial residual = 0.00040165850126013, Final residual = 2.53622194494661e-08, No Iterations 1
smoothSolver:  Solving for k, Initial residual = 0.01779745256540468, Final residual = 4.023487732841678e-06, No Iterations 1
bounding k, min: 0 max: 0.05230823837463817 average: 0.0003118093129930206
ExecutionTime = 2.55 s  ClockTime = 3 s

forceCoeffs forceCoeffs execute:
    Coefficients
        Cd       : -0.4562269690124742	(pressure: -0.4821094235742807	viscous: 0.02588245456180651)
        Cs       : -1.305832465076174e-21	(pressure: -1.383878187865417e-24	viscous: -1.304448586888308e-21)
        Cl       : 0.3271564678490039	(pressure: 0.3359464405855594	viscous: -0.008789972736555546)
        CmRoll       : -0.327156467849004	(pressure: -0.3359464405855596	viscous: 0.008789972736555549)
        CmPitch       : 0.2219950353079243	(pressure: 0.2184592085481188	viscous: 0.003535826759805436)
        CmYaw       : -0.4562269690124742	(pressure: -0.4821094235742807	viscous: 0.02588245456180651)
        Cd(f)    : -0.5552699523552411
        Cd(r)    : 0.09904298334276687
        Cs(f)    : -0.4562269690124742
        Cs(r)    : 0.4562269690124742
        Cl(f)    : 0.3855732692324262
        Cl(r)    : -0.05841680138342234
Time = 6

smoothSolver:  Solving for Ux, Initial residual = 8.379343221097035e-06, Final residual = 2.757551739370696e-07, No Iterations 2
smoothSolver:  Solving for Uy, Initial residual = 1.220649084716812e-05, Final residual = 3.908405239848075e-07, No Iterations 2
GAMG:  Solving for p, Initial residual = 0.0003116488752549791, Final residual = 3.112886004608605e-05, No Iterations 51
time step continuity errors : sum local = 4.632691817786138e-10, global = -3.598426929187159e-10, cumulative = 3.866541831748306e-09
smoothSolver:  Solving for omega, Initial residual = 0.0001212080385366984, Final residual = 3.093196570328541e-08, No Iterations 1
smoothSolver:  Solving for k, Initial residual = 0.005305610011278007, Final residual = 5.126831364032951e-06, No Iterations 1
bounding k, min: 0 max: 0.03274738595735743 average: 0.0003038800110581325
ExecutionTime = 2.96 s  ClockTime = 3 s

forceCoeffs forceCoeffs execute:
    Coefficients
        Cd       : 0.1318505545925838	(pressure: 0.1097294979419597	viscous: 0.02212105665062417)
        Cs       : -1.24066813894011e-21	(pressure: -9.965472239429585e-22	viscous: -2.441209149971511e-22)
        Cl       : 0.9829492521084774	(pressure: 0.9872220973842999	viscous: -0.004272845275822535)
        CmRoll       : -0.9829492521084773	(pressure: -0.9872220973842998	viscous: 0.004272845275822535)
        CmPitch       : -0.04893297390404217	(pressure: -0.05063036825111079	viscous: 0.001697394347068623)
        CmYaw       : 0.1318505545925838	(pressure: 0.1097294979419596	viscous: 0.02212105665062417)
        Cd(f)    : -0.9170239748121853
        Cd(r)    : 1.048874529404769
        Cs(f)    : 0.1318505545925838
        Cs(r)    : -0.1318505545925838
        Cl(f)    : 0.4425416521501965
        Cl(r)    : 0.5404075999582809
Time = 7

smoothSolver:  Solving for Ux, Initial residual = 7.441033412269684e-06, Final residual = 2.163147638085558e-07, No Iterations 2
smoothSolver:  Solving for Uy, Initial residual = 9.558196019469579e-06, Final residual = 2.928414459840817e-07, No Iterations 2
GAMG:  Solving for p, Initial residual = 0.00274705553672651, Final residual = 0.0002692259339251422, No Iterations 42
time step continuity errors : sum local = 3.171826205961043e-10, global = -2.384976082354339e-10, cumulative = 3.628044223512872e-09
smoothSolver:  Solving for omega, Initial residual = 3.401328702698081e-05, Final residual = 3.864661416221931e-08, No Iterations 1
smoothSolver:  Solving for k, Initial residual = 0.00164174542897545, Final residual = 5.419763190985573e-06, No Iterations 1
bounding k, min: 0 max: 0.04271003285278588 average: 0.0003048511888153316
ExecutionTime = 3.33 s  ClockTime = 3 s

forceCoeffs forceCoeffs execute:
    Coefficients
        Cd       : -0.01647649412740237	(pressure: -0.035478366743698	viscous: 0.01900187261629563)
        Cs       : -6.32611893985925e-22	(pressure: -3.833331849400574e-22	viscous: -2.492787090458676e-22)
        Cl       : 0.4188437591388594	(pressure: 0.4216949354953735	viscous: -0.002851176356514171)
        CmRoll       : -0.4188437591388594	(pressure: -0.4216949354953736	viscous: 0.002851176356514172)
        CmPitch       : 0.02314489407756185	(pressure: 0.02204130650090143	viscous: 0.001103587576660421)
        CmYaw       : -0.01647649412740237	(pressure: -0.035478366743698	viscous: 0.01900187261629563)
        Cd(f)    : -0.4270820062025606
        Cd(r)    : 0.4106055120751582
        Cs(f)    : -0.01647649412740237
        Cs(r)    : 0.01647649412740237
        Cl(f)    : 0.2325667736469915
        Cl(r)    : 0.1862769854918678
Time = 8

smoothSolver:  Solving for Ux, Initial residual = 5.876700792937542e-06, Final residual = 1.795141519281535e-07, No Iterations 2
smoothSolver:  Solving for Uy, Initial residual = 7.480809048017608e-06, Final residual = 2.24690869680497e-07, No Iterations 2
GAMG:  Solving for p, Initial residual = 0.0007004097813727287, Final residual = 6.60863676672125e-05, No Iterations 44
time step continuity errors : sum local = 2.287097793690213e-10, global = -1.80391829816504e-10, cumulative = 3.447652393696368e-09
smoothSolver:  Solving for omega, Initial residual = 9.335359404143083e-06, Final residual = 4.039890856527035e-08, No Iterations 1
smoothSolver:  Solving for k, Initial residual = 0.0004673981858517205, Final residual = 4.246092853645592e-06, No Iterations 1
bounding k, min: 0 max: 0.05448933369731642 average: 0.0003068598047011704
ExecutionTime = 3.68 s  ClockTime = 4 s

forceCoeffs forceCoeffs execute:
    Coefficients
        Cd       : 0.1688007112551989	(pressure: 0.152070264454936	viscous: 0.01673044680026291)
        Cs       : -9.362235028365008e-22	(pressure: -8.23355072584501e-22	viscous: -1.128684302519999e-22)
        Cl       : 0.5680412944962553	(pressure: 0.5704306559466065	viscous: -0.002389361450351214)
        CmRoll       : -0.5680412944962554	(pressure: -0.5704306559466066	viscous: 0.002389361450351214)
        CmPitch       : -0.02709215371549789	(pressure: -0.02801608429948915	viscous: 0.0009239305839912523)
        CmYaw       : 0.1688007112551989	(pressure: 0.152070264454936	viscous: 0.01673044680026291)
        Cd(f)    : -0.4836409388686559
        Cd(r)    : 0.6524416501238548
        Cs(f)    : 0.1688007112551989
        Cs(r)    : -0.1688007112551989
        Cl(f)    : 0.2569284935326298
        Cl(r)    : 0.3111128009636255
Time = 9

smoothSolver:  Solving for Ux, Initial residual = 4.89811998809417e-06, Final residual = 1.730544401668151e-07, No Iterations 2
smoothSolver:  Solving for Uy, Initial residual = 6.076785175391013e-06, Final residual = 1.975337851488199e-07, No Iterations 2
GAMG:  Solving for p, Initial residual = 0.000194943671949008, Final residual = 1.93202757067845e-05, No Iterations 37
time step continuity errors : sum local = 1.768456053924608e-10, global = 1.401305802966807e-10, cumulative = 3.587782973993049e-09
smoothSolver:  Solving for omega, Initial residual = 2.811790359418821e-06, Final residual = 3.183819982384745e-08, No Iterations 1
smoothSolver:  Solving for k, Initial residual = 0.0001864581667780302, Final residual = 2.676164381784625e-06, No Iterations 1
bounding k, min: 0 max: 0.04481005742899513 average: 0.000308045491175573
ExecutionTime = 4.01 s  ClockTime = 4 s

forceCoeffs forceCoeffs execute:
    Coefficients
        Cd       : 0.07510700689949766	(pressure: 0.06004899006292308	viscous: 0.01505801683657458)
        Cs       : -6.719735765938879e-22	(pressure: -4.523398062423555e-22	viscous: -2.196337703515324e-22)
        Cl       : 0.4859898141484024	(pressure: 0.4882615666606628	viscous: -0.002271752512260496)
        CmRoll       : -0.4859898141484024	(pressure: -0.4882615666606629	viscous: 0.002271752512260496)
        CmPitch       : -0.02125967185757173	(pressure: -0.02212851807655959	viscous: 0.000868846218987866)
        CmYaw       : 0.07510700689949769	(pressure: 0.0600489900629231	viscous: 0.01505801683657458)
        Cd(f)    : -0.4484363106986536
        Cd(r)    : 0.5235433175981512
        Cs(f)    : 0.07510700689949769
        Cs(r)    : -0.07510700689949769
        Cl(f)    : 0.2217352352166295
        Cl(r)    : 0.2642545789317729
Time = 10

smoothSolver:  Solving for Ux, Initial residual = 4.709449072882132e-06, Final residual = 1.789782722603155e-07, No Iterations 2
smoothSolver:  Solving for Uy, Initial residual = 5.466325905461169e-06, Final residual = 1.870157548941012e-07, No Iterations 2
GAMG:  Solving for p, Initial residual = 0.0001909956408185464, Final residual = 1.846308345768734e-05, No Iterations 32
time step continuity errors : sum local = 1.334708090800251e-10, global = 1.084766962928315e-10, cumulative = 3.69625967028588e-09
smoothSolver:  Solving for omega, Initial residual = 1.069724429816387e-06, Final residual = 2.048720753960503e-08, No Iterations 1
smoothSolver:  Solving for k, Initial residual = 6.583749191159731e-05, Final residual = 1.693470444896478e-06, No Iterations 1
bounding k, min: 0 max: 0.038955802318951 average: 0.0003090748164543953
ExecutionTime = 4.31 s  ClockTime = 4 s

forceCoeffs forceCoeffs execute:
    Coefficients
        Cd       : 0.1115409897969586	(pressure: 0.09771493804687206	viscous: 0.0138260517500865)
        Cs       : -8.381937807858221e-22	(pressure: -5.619873955676739e-22	viscous: -2.762063852181483e-22)
        Cl       : 0.6140409807143233	(pressure: 0.6162819044881579	viscous: -0.002240923773834571)
        CmRoll       : -0.6140409807143233	(pressure: -0.6162819044881579	viscous: 0.002240923773834571)
        CmPitch       : -0.03286690437148234	(pressure: -0.03372246015138754	viscous: 0.0008555557799051957)
        CmYaw       : 0.1115409897969586	(pressure: 0.09771493804687206	viscous: 0.0138260517500865)
        Cd(f)    : -0.558270485815844
        Cd(r)    : 0.6698114756128026
        Cs(f)    : 0.1115409897969586
        Cs(r)    : -0.1115409897969586
        Cl(f)    : 0.2741535859856793
        Cl(r)    : 0.339887394728644
Time = 11

smoothSolver:  Solving for Ux, Initial residual = 4.074670513320468e-06, Final residual = 1.658176530533619e-07, No Iterations 2
smoothSolver:  Solving for Uy, Initial residual = 4.780045925425824e-06, Final residual = 1.73639846234655e-07, No Iterations 2
GAMG:  Solving for p, Initial residual = 0.0001759513212050626, Final residual = 1.689370187467172e-05, No Iterations 42
time step continuity errors : sum local = 1.081649726679394e-10, global = 8.444703884170811e-11, cumulative = 3.780706709127588e-09
smoothSolver:  Solving for omega, Initial residual = 4.935617075371855e-07, Final residual = 1.34073620842587e-08, No Iterations 1
smoothSolver:  Solving for k, Initial residual = 3.694222658473124e-05, Final residual = 1.140553603994337e-06, No Iterations 1
bounding k, min: 0 max: 0.04007233968171225 average: 0.0003107368349925228
ExecutionTime = 4.69 s  ClockTime = 5 s

forceCoeffs forceCoeffs execute:
    Coefficients
        Cd       : 0.06817236816814817	(pressure: 0.055299755357115	viscous: 0.01287261281103318)
        Cs       : -6.415505658555533e-22	(pressure: -3.65221016531813e-22	viscous: -2.763295493237403e-22)
        Cl       : 0.6256064240942034	(pressure: 0.6278513922200003	viscous: -0.002244968125796849)
        CmRoll       : -0.6256064240942035	(pressure: -0.6278513922200004	viscous: 0.002244968125796849)
        CmPitch       : -0.043893627284732	(pressure: -0.04474228962565259	viscous: 0.0008486623409205876)
        CmYaw       : 0.06817236816814817	(pressure: 0.055299755357115	viscous: 0.01287261281103318)
        Cd(f)    : -0.5915202400101295
        Cd(r)    : 0.6596926081782776
        Cs(f)    : 0.06817236816814817
        Cs(r)    : -0.06817236816814817
        Cl(f)    : 0.2689095847623697
        Cl(r)    : 0.3566968393318337
Time = 12

smoothSolver:  Solving for Ux, Initial residual = 3.905645121727957e-06, Final residual = 1.667625437152528e-07, No Iterations 2
smoothSolver:  Solving for Uy, Initial residual = 4.460592341870145e-06, Final residual = 1.720937993598246e-07, No Iterations 2
GAMG:  Solving for p, Initial residual = 0.0001929224077100747, Final residual = 1.816673305412643e-05, No Iterations 28
time step continuity errors : sum local = 8.602820356001419e-11, global = 6.970758736232016e-11, cumulative = 3.850414296489908e-09
smoothSolver:  Solving for omega, Initial residual = 2.658537000613368e-07, Final residual = 9.349087710065777e-09, No Iterations 1
smoothSolver:  Solving for k, Initial residual = 1.892746128152245e-05, Final residual = 8.141377926547239e-07, No Iterations 1
bounding k, min: 0 max: 0.04577159540912625 average: 0.0003133533748000936
ExecutionTime = 4.99 s  ClockTime = 5 s

forceCoeffs forceCoeffs execute:
    Coefficients
        Cd       : 0.08990085671708713	(pressure: 0.07778308432846601	viscous: 0.01211777238862113)
        Cs       : -6.462478068562536e-22	(pressure: -3.855876212070115e-22	viscous: -2.606601856492421e-22)
        Cl       : 0.6782994005491502	(pressure: 0.6805391463723338	viscous: -0.002239745823183689)
        CmRoll       : -0.6782994005491502	(pressure: -0.6805391463723338	viscous: 0.002239745823183689)
        CmPitch       : -0.04984555571270607	(pressure: -0.05068991556021856	viscous: 0.000844359847512489)
        CmYaw       : 0.08990085671708717	(pressure: 0.07778308432846605	viscous: 0.01211777238862112)
        Cd(f)    : -0.6333489721906066
        Cd(r)    : 0.7232498289076937
        Cs(f)    : 0.08990085671708717
        Cs(r)    : -0.08990085671708717
        Cl(f)    : 0.289304144561869
        Cl(r)    : 0.3889952559872811
Time = 13

smoothSolver:  Solving for Ux, Initial residual = 3.862781719479166e-06, Final residual = 1.66738275767994e-07, No Iterations 2
smoothSolver:  Solving for Uy, Initial residual = 4.277296493932566e-06, Final residual = 1.687520051437079e-07, No Iterations 2
GAMG:  Solving for p, Initial residual = 0.0001568115466201463, Final residual = 1.524791262685345e-05, No Iterations 26
time step continuity errors : sum local = 7.249594696175998e-11, global = 5.839227573475745e-11, cumulative = 3.908806572224666e-09
smoothSolver:  Solving for omega, Initial residual = 1.621495352095115e-07, Final residual = 6.929164175073209e-09, No Iterations 1
smoothSolver:  Solving for k, Initial residual = 1.322608768529277e-05, Final residual = 6.090549960272113e-07, No Iterations 1
bounding k, min: 0 max: 0.0511890675184136 average: 0.000316501107129878
ExecutionTime = 5.27 s  ClockTime = 5 s

forceCoeffs forceCoeffs execute:
    Coefficients
        Cd       : 0.0845192335836195	(pressure: 0.07302151139675465	viscous: 0.01149772218686485)
        Cs       : -5.111787668009029e-22	(pressure: -3.171353912957385e-22	viscous: -1.940433755051643e-22)
        Cl       : 0.6892854620766623	(pressure: 0.6915129596786597	viscous: -0.002227497601997399)
        CmRoll       : -0.6892854620766624	(pressure: -0.6915129596786598	viscous: 0.002227497601997399)
        CmPitch       : -0.05857390249036746	(pressure: -0.0594104236778713	viscous: 0.0008365211875038368)
        CmYaw       : 0.0845192335836195	(pressure: 0.07302151139675465	viscous: 0.01149772218686485)
        Cd(f)    : -0.6470258452848526
        Cd(r)    : 0.7315450788684722
        Cs(f)    : 0.0845192335836195
        Cs(r)    : -0.0845192335836195
        Cl(f)    : 0.2860688285479637
        Cl(r)    : 0.4032166335286986
Time = 14

smoothSolver:  Solving for Ux, Initial residual = 3.931742711993312e-06, Final residual = 1.730896267193159e-07, No Iterations 2
smoothSolver:  Solving for Uy, Initial residual = 4.160751540992047e-06, Final residual = 1.690669993409536e-07, No Iterations 2
GAMG:  Solving for p, Initial residual = 0.0001344651131165278, Final residual = 1.327264074307271e-05, No Iterations 34
time step continuity errors : sum local = 6.134677785560921e-11, global = 5.117758249323092e-11, cumulative = 3.959984154717896e-09
smoothSolver:  Solving for omega, Initial residual = 1.099204152893864e-07, Final residual = 5.370643064311714e-09, No Iterations 1
smoothSolver:  Solving for k, Initial residual = 9.051306890992455e-06, Final residual = 4.723871316352716e-07, No Iterations 1
bounding k, min: 0 max: 0.04549790439843831 average: 0.0003206193379035327
ExecutionTime = 5.58 s  ClockTime = 6 s

forceCoeffs forceCoeffs execute:
    Coefficients
        Cd       : 0.09763243053429985	(pressure: 0.08664818723362727	viscous: 0.01098424330067258)
        Cs       : -4.486962428948916e-22	(pressure: -2.829938241529401e-22	viscous: -1.657024187419515e-22)
        Cl       : 0.7233108055140488	(pressure: 0.7255157726921752	viscous: -0.002204967178126386)
        CmRoll       : -0.7233108055140488	(pressure: -0.7255157726921752	viscous: 0.002204967178126386)
        CmPitch       : -0.06598296412885696	(pressure: -0.06681059321379734	viscous: 0.0008276290849403827)
        CmYaw       : 0.09763243053429985	(pressure: 0.08664818723362727	viscous: 0.01098424330067257)
        Cd(f)    : -0.6744945902468988
        Cd(r)    : 0.7721270207811988
        Cs(f)    : 0.09763243053429985
        Cs(r)    : -0.09763243053429985
        Cl(f)    : 0.2956724386281674
        Cl(r)    : 0.4276383668858814
Time = 15

smoothSolver:  Solving for Ux, Initial residual = 4.031708337997442e-06, Final residual = 1.81210323342477e-07, No Iterations 2
smoothSolver:  Solving for Uy, Initial residual = 4.118764010862817e-06, Final residual = 1.710010331878788e-07, No Iterations 2
GAMG:  Solving for p, Initial residual = 0.0001118456216720822, Final residual = 1.115992288742694e-05, No Iterations 39
time step continuity errors : sum local = 5.357562248474546e-11, global = -4.697277961757846e-11, cumulative = 3.913011375100318e-09
smoothSolver:  Solving for omega, Initial residual = 8.074236636670166e-08, Final residual = 4.308509586468595e-09, No Iterations 1
smoothSolver:  Solving for k, Initial residual = 6.954884752460078e-06, Final residual = 3.776260555047546e-07, No Iterations 1
bounding k, min: 0 max: 0.04260107839019836 average: 0.0003258609632708816
ExecutionTime = 5.92 s  ClockTime = 6 s

forceCoeffs forceCoeffs execute:
    Coefficients
        Cd       : 0.09864072995875857	(pressure: 0.08809026787257876	viscous: 0.0105504620861798)
        Cs       : -3.674495270754965e-22	(pressure: -2.345081432249259e-22	viscous: -1.329413838505706e-22)
        Cl       : 0.7431523732114726	(pressure: 0.7453310315890541	viscous: -0.00217865837758147)
        CmRoll       : -0.7431523732114725	(pressure: -0.745331031589054	viscous: 0.00217865837758147)
        CmPitch       : -0.0716354801708888	(pressure: -0.07245230365531932	viscous: 0.0008168234844305201)
        CmYaw       : 0.09864072995875856	(pressure: 0.08809026787257875	viscous: 0.0105504620861798)
        Cd(f)    : -0.6938320082320932
        Cd(r)    : 0.7924727381908518
        Cs(f)    : 0.09864072995875856
        Cs(r)    : -0.09864072995875856
        Cl(f)    : 0.2999407064348475
        Cl(r)    : 0.4432116667766252
Time = 16

smoothSolver:  Solving for Ux, Initial residual = 4.204778542445357e-06, Final residual = 1.889596836531489e-07, No Iterations 2
smoothSolver:  Solving for Uy, Initial residual = 4.194698886272647e-06, Final residual = 1.738964219208748e-07, No Iterations 2
GAMG:  Solving for p, Initial residual = 9.545347740415619e-05, Final residual = 9.264666091716355e-06, No Iterations 42
time step continuity errors : sum local = 4.320016439010177e-11, global = -3.810529096914964e-11, cumulative = 3.874906084131168e-09
smoothSolver:  Solving for omega, Initial residual = 6.278555634283785e-08, Final residual = 3.548321070674336e-09, No Iterations 1
smoothSolver:  Solving for k, Initial residual = 5.396598130104634e-06, Final residual = 3.079716792753214e-07, No Iterations 1
bounding k, min: 0 max: 0.04014846328485447 average: 0.0003319138350172565
ExecutionTime = 6.27 s  ClockTime = 6 s

forceCoeffs forceCoeffs execute:
    Coefficients
        Cd       : 0.105347833604965	(pressure: 0.09516503834876028	viscous: 0.01018279525620474)
        Cs       : -3.235874532251275e-22	(pressure: -1.693350893180662e-22	viscous: -1.542523639070613e-22)
        Cl       : 0.7704105217228596	(pressure: 0.7725602674310915	viscous: -0.002149745708231845)
        CmRoll       : -0.7704105217228596	(pressure: -0.7725602674310915	viscous: 0.002149745708231845)
        CmPitch       : -0.07735247948144187	(pressure: -0.07815765002768585	viscous: 0.0008051705462439804)
        CmYaw       : 0.105347833604965	(pressure: 0.09516503834876031	viscous: 0.01018279525620474)
        Cd(f)    : -0.7177366049203771
        Cd(r)    : 0.8230844385253422
        Cs(f)    : 0.105347833604965
        Cs(r)    : -0.105347833604965
        Cl(f)    : 0.3078527813799879
        Cl(r)    : 0.4625577403428717
Time = 17

smoothSolver:  Solving for Ux, Initial residual = 4.312805755876418e-06, Final residual = 1.958991173132391e-07, No Iterations 2
smoothSolver:  Solving for Uy, Initial residual = 4.177735299869898e-06, Final residual = 1.774162767308411e-07, No Iterations 2
GAMG:  Solving for p, Initial residual = 8.544476097928888e-05, Final residual = 8.383504139610985e-06, No Iterations 47
time step continuity errors : sum local = 3.845559858653334e-11, global = 3.40860535060187e-11, cumulative = 3.908992137637187e-09
smoothSolver:  Solving for omega, Initial residual = 5.080141050316397e-08, Final residual = 2.984943361578217e-09, No Iterations 1
smoothSolver:  Solving for k, Initial residual = 4.3491313974364e-06, Final residual = 2.555792937118135e-07, No Iterations 1
bounding k, min: 0 max: 0.03896176529034983 average: 0.0003388286108954868
ExecutionTime = 6.65 s  ClockTime = 7 s

forceCoeffs forceCoeffs execute:
    Coefficients
        Cd       : 0.1084452736027122	(pressure: 0.09857529026312814	viscous: 0.009869983339584063)
        Cs       : -2.808912610696138e-22	(pressure: -9.458568023092436e-23	viscous: -1.863055808386894e-22)
        Cl       : 0.7945649555517672	(pressure: 0.7966861284471406	viscous: -0.002121172895373359)
        CmRoll       : -0.7945649555517674	(pressure: -0.7966861284471408	viscous: 0.002121172895373359)
        CmPitch       : -0.08233897352349002	(pressure: -0.08313212495401458	viscous: 0.0007931514305245499)
        CmYaw       : 0.1084452736027122	(pressure: 0.09857529026312815	viscous: 0.009869983339584061)
        Cd(f)    : -0.7403423187504113
        Cd(r)    : 0.8487875923531235
        Cs(f)    : 0.1084452736027122
        Cs(r)    : -0.1084452736027122
        Cl(f)    : 0.3149435042523936
        Cl(r)    : 0.4796214512993736
Time = 18

smoothSolver:  Solving for Ux, Initial residual = 4.418726278095873e-06, Final residual = 2.002018678466524e-07, No Iterations 2
smoothSolver:  Solving for Uy, Initial residual = 4.172695323230409e-06, Final residual = 1.798403592212292e-07, No Iterations 2
GAMG:  Solving for p, Initial residual = 7.822214781244509e-05, Final residual = 7.609330088393867e-06, No Iterations 48
time step continuity errors : sum local = 3.371247556854601e-11, global = 2.992525889903154e-11, cumulative = 3.938917396536219e-09
smoothSolver:  Solving for omega, Initial residual = 4.227147708855146e-08, Final residual = 2.555453368557684e-09, No Iterations 1
smoothSolver:  Solving for k, Initial residual = 3.557906483901332e-06, Final residual = 2.147825117607455e-07, No Iterations 1
bounding k, min: 0 max: 0.0383386060833224 average: 0.0003464909428322629
ExecutionTime = 7.04 s  ClockTime = 7 s

forceCoeffs forceCoeffs execute:
    Coefficients
        Cd       : 0.1132999612643692	(pressure: 0.103695850973199	viscous: 0.009604110291170202)
        Cs       : -2.452960864267969e-22	(pressure: -5.490730878114499e-24	viscous: -2.398053555486823e-22)
        Cl       : 0.8180221308405017	(pressure: 0.8201146217025461	viscous: -0.002092490862044437)
        CmRoll       : -0.8180221308405017	(pressure: -0.8201146217025461	viscous: 0.002092490862044437)
        CmPitch       : -0.08724244502962662	(pressure: -0.08802387566939485	viscous: 0.0007814306397682227)
        CmYaw       : 0.1132999612643692	(pressure: 0.103695850973199	viscous: 0.0096041102911702)
        Cd(f)    : -0.7613721502083171
        Cd(r)    : 0.8746721114726863
        Cs(f)    : 0.1132999612643692
        Cs(r)    : -0.1132999612643692
        Cl(f)    : 0.3217686203906242
        Cl(r)    : 0.4962535104498775
Time = 19

smoothSolver:  Solving for Ux, Initial residual = 4.498437305298553e-06, Final residual = 2.036958206169145e-07, No Iterations 2
smoothSolver:  Solving for Uy, Initial residual = 4.148742796219916e-06, Final residual = 1.815122713704546e-07, No Iterations 2
GAMG:  Solving for p, Initial residual = 7.444548806792864e-05, Final residual = 7.437548405883607e-06, No Iterations 46
time step continuity errors : sum local = 3.2485919934521e-11, global = 2.875221546717826e-11, cumulative = 3.967669612003397e-09
smoothSolver:  Solving for omega, Initial residual = 3.585377843897054e-08, Final residual = 2.219903685459596e-09, No Iterations 1
smoothSolver:  Solving for k, Initial residual = 2.962285043381623e-06, Final residual = 1.830867600418015e-07, No Iterations 1
bounding k, min: 0 max: 0.03746343466100532 average: 0.0003551084112327315
ExecutionTime = 7.42 s  ClockTime = 7 s

forceCoeffs forceCoeffs execute:
    Coefficients
        Cd       : 0.1168727890335624	(pressure: 0.1074966609385546	viscous: 0.009376128095007758)
        Cs       : -2.079637178470204e-22	(pressure: 8.862251550096642e-23	viscous: -2.965862333479868e-22)
        Cl       : 0.8389150011173696	(pressure: 0.8409774111899999	viscous: -0.002062410072630336)
        CmRoll       : -0.8389150011173697	(pressure: -0.84097741119	viscous: 0.002062410072630336)
        CmPitch       : -0.09136939641799433	(pressure: -0.0921386486224386	viscous: 0.0007692522044442734)
        CmYaw       : 0.1168727890335624	(pressure: 0.1074966609385546	viscous: 0.009376128095007756)
        Cd(f)    : -0.7804786066005885
        Cd(r)    : 0.8973513956341509
        Cs(f)    : 0.1168727890335624
        Cs(r)    : -0.1168727890335624
        Cl(f)    : 0.3280881041406905
        Cl(r)    : 0.5108268969766792
Time = 20

smoothSolver:  Solving for Ux, Initial residual = 4.61747973095425e-06, Final residual = 2.08167036631073e-07, No Iterations 2
smoothSolver:  Solving for Uy, Initial residual = 4.161565400236407e-06, Final residual = 1.844417868693153e-07, No Iterations 2
GAMG:  Solving for p, Initial residual = 7.063079575648815e-05, Final residual = 7.019464461901425e-06, No Iterations 46
time step continuity errors : sum local = 3.014161340343085e-11, global = 2.626673023262167e-11, cumulative = 3.99393634223602e-09
smoothSolver:  Solving for omega, Initial residual = 3.095056732896317e-08, Final residual = 1.95236497244449e-09, No Iterations 1
smoothSolver:  Solving for k, Initial residual = 2.496324224996778e-06, Final residual = 1.58014944848274e-07, No Iterations 1
bounding k, min: 0 max: 0.03701274601489186 average: 0.0003645858639760495
ExecutionTime = 7.79 s  ClockTime = 8 s

forceCoeffs forceCoeffs execute:
    Coefficients
        Cd       : 0.1224402175502163	(pressure: 0.1132622213749538	viscous: 0.009177996175262416)
        Cs       : -1.653032129502015e-22	(pressure: 1.816257942901273e-22	viscous: -3.469290072403288e-22)
        Cl       : 0.8587209272172823	(pressure: 0.8607529781122771	viscous: -0.002032050894994847)
        CmRoll       : -0.8587209272172824	(pressure: -0.8607529781122772	viscous: 0.002032050894994847)
        CmPitch       : -0.09574951928314235	(pressure: -0.09650690032845821	viscous: 0.0007573810453158574)
        CmYaw       : 0.1224402175502163	(pressure: 0.1132622213749539	viscous: 0.009177996175262415)
        Cd(f)    : -0.7975008184421744
        Cd(r)    : 0.9199410359923905
        Cs(f)    : 0.1224402175502163
        Cs(r)    : -0.1224402175502163
        Cl(f)    : 0.3336109443254988
        Cl(r)    : 0.5251099828917836
Time = 21

smoothSolver:  Solving for Ux, Initial residual = 4.734558814434667e-06, Final residual = 2.129262781485936e-07, No Iterations 2
smoothSolver:  Solving for Uy, Initial residual = 4.190323284850684e-06, Final residual = 1.878777012196778e-07, No Iterations 2
GAMG:  Solving for p, Initial residual = 6.446523905037429e-05, Final residual = 6.383772829594556e-06, No Iterations 48
time step continuity errors : sum local = 2.751389266479796e-11, global = 2.391278492826566e-11, cumulative = 4.017849127164285e-09
smoothSolver:  Solving for omega, Initial residual = 2.702120249316253e-08, Final residual = 1.734435618173165e-09, No Iterations 1
smoothSolver:  Solving for k, Initial residual = 2.127498643711526e-06, Final residual = 1.378281659157071e-07, No Iterations 1
bounding k, min: 0 max: 0.03799232455612876 average: 0.0003749388968250646
ExecutionTime = 8.210000000000001 s  ClockTime = 8 s

forceCoeffs forceCoeffs execute:
    Coefficients
        Cd       : 0.1281101033307293	(pressure: 0.1191053219044706	viscous: 0.009004781426258643)
        Cs       : -1.271035979734453e-22	(pressure: 2.748587401027101e-22	viscous: -4.019623380761554e-22)
        Cl       : 0.8762947793713209	(pressure: 0.8782965964634856	viscous: -0.002001817092164672)
        CmRoll       : -0.8762947793713206	(pressure: -0.8782965964634852	viscous: 0.002001817092164672)
        CmPitch       : -0.09971097355020159	(pressure: -0.1004568913123306	viscous: 0.0007459177621290055)
        CmYaw       : 0.1281101033307292	(pressure: 0.1191053219044706	viscous: 0.009004781426258643)
        Cd(f)    : -0.812239727705956
        Cd(r)    : 0.9403498310366852
        Cs(f)    : 0.1281101033307292
        Cs(r)    : -0.1281101033307292
        Cl(f)    : 0.3384364161354589
        Cl(r)    : 0.537858363235862
Time = 22

smoothSolver:  Solving for Ux, Initial residual = 4.856704593798041e-06, Final residual = 2.173842430989276e-07, No Iterations 2
smoothSolver:  Solving for Uy, Initial residual = 4.238690922871805e-06, Final residual = 1.915042107598981e-07, No Iterations 2
GAMG:  Solving for p, Initial residual = 5.983954030045098e-05, Final residual = 5.842123034017358e-06, No Iterations 49
time step continuity errors : sum local = 2.546842518942729e-11, global = -2.225336611859968e-11, cumulative = 3.995595761045685e-09
smoothSolver:  Solving for omega, Initial residual = 2.388654178132337e-08, Final residual = 1.554311184519112e-09, No Iterations 1
smoothSolver:  Solving for k, Initial residual = 1.831149296664683e-06, Final residual = 1.2147360276185e-07, No Iterations 1
bounding k, min: 0 max: 0.03959659949465077 average: 0.0003862134734562907
ExecutionTime = 8.58 s  ClockTime = 9 s

forceCoeffs forceCoeffs execute:
    Coefficients
        Cd       : 0.1321728951539179	(pressure: 0.1233202174172736	viscous: 0.008852677736644268)
        Cs       : -9.399261504238205e-23	(pressure: 3.729103911629049e-22	viscous: -4.66903006205287e-22)
        Cl       : 0.8931355536889787	(pressure: 0.8951081181160574	viscous: -0.001972564427078711)
        CmRoll       : -0.8931355536889787	(pressure: -0.8951081181160574	viscous: 0.001972564427078711)
        CmPitch       : -0.1031646966753266	(pressure: -0.1038997757050925	viscous: 0.0007350790297659689)
        CmYaw       : 0.1321728951539179	(pressure: 0.1233202174172737	viscous: 0.008852677736644266)
        Cd(f)    : -0.8270491061120198
        Cd(r)    : 0.9592220012659376
        Cs(f)    : 0.1321728951539179
        Cs(r)    : -0.1321728951539179
        Cl(f)    : 0.3434030801691628
        Cl(r)    : 0.5497324735198159
Time = 23

smoothSolver:  Solving for Ux, Initial residual = 5.006271030335279e-06, Final residual = 2.210627954076453e-07, No Iterations 2
smoothSolver:  Solving for Uy, Initial residual = 4.335028297715042e-06, Final residual = 1.949279681764087e-07, No Iterations 2
GAMG:  Solving for p, Initial residual = 5.625079411180579e-05, Final residual = 5.603452064321008e-06, No Iterations 51
time step continuity errors : sum local = 2.447810350604928e-11, global = 2.165607029883419e-11, cumulative = 4.017251831344519e-09
smoothSolver:  Solving for omega, Initial residual = 2.134176046635804e-08, Final residual = 1.404977069624675e-09, No Iterations 1
smoothSolver:  Solving for k, Initial residual = 1.591342936440882e-06, Final residual = 1.082951513692956e-07, No Iterations 1
bounding k, min: 0 max: 0.04245444830725029 average: 0.0003986077250839204
ExecutionTime = 8.99 s  ClockTime = 9 s

forceCoeffs forceCoeffs execute:
    Coefficients
        Cd       : 0.1359226994810536	(pressure: 0.127203339800335	viscous: 0.008719359680718642)
        Cs       : -5.652146605189769e-23	(pressure: 4.622260825903227e-22	viscous: -5.187475486422204e-22)
        Cl       : 0.9099421084498825	(pressure: 0.9118872343251523	viscous: -0.00194512587526972)
        CmRoll       : -0.9099421084498827	(pressure: -0.9118872343251524	viscous: 0.00194512587526972)
        CmPitch       : -0.1066061701361714	(pressure: -0.1073310947978793	viscous: 0.000724924661707893)
        CmYaw       : 0.1359226994810536	(pressure: 0.127203339800335	viscous: 0.008719359680718641)
        Cd(f)    : -0.8419807587093558
        Cd(r)    : 0.9779034581904095
        Cs(f)    : 0.1359226994810536
        Cs(r)    : -0.1359226994810536
        Cl(f)    : 0.3483648840887699
        Cl(r)    : 0.5615772243611127
Time = 24

smoothSolver:  Solving for Ux, Initial residual = 5.103009153804119e-06, Final residual = 2.239954135350624e-07, No Iterations 2
smoothSolver:  Solving for Uy, Initial residual = 4.403362802518045e-06, Final residual = 1.98038655166564e-07, No Iterations 2
GAMG:  Solving for p, Initial residual = 5.663844751650579e-05, Final residual = 5.588858743414225e-06, No Iterations 55
time step continuity errors : sum local = 2.447274156864279e-11, global = -2.1702304600813e-11, cumulative = 3.995549526743706e-09
smoothSolver:  Solving for omega, Initial residual = 1.91699657830029e-08, Final residual = 1.278837170405699e-09, No Iterations 1
smoothSolver:  Solving for k, Initial residual = 1.393664555900559e-06, Final residual = 9.75580741365844e-08, No Iterations 1
bounding k, min: 0 max: 0.046830537156225 average: 0.0004119033440418884
ExecutionTime = 9.380000000000001 s  ClockTime = 9 s

forceCoeffs forceCoeffs execute:
    Coefficients
        Cd       : 0.1394703406502496	(pressure: 0.1308680544166316	viscous: 0.008602286233618028)
        Cs       : -2.212786431699777e-23	(pressure: 5.376895850971244e-22	viscous: -5.598174494141222e-22)
        Cl       : 0.9262131676022303	(pressure: 0.9281327877514309	viscous: -0.001919620149200647)
        CmRoll       : -0.9262131676022305	(pressure: -0.9281327877514312	viscous: 0.001919620149200647)
        CmPitch       : -0.1096514304855788	(pressure: -0.1103669642234668	viscous: 0.000715533737887979)
        CmYaw       : 0.1394703406502497	(pressure: 0.1308680544166316	viscous: 0.008602286233618028)
        Cd(f)    : -0.8564779972771057
        Cd(r)    : 0.9959483379273553
        Cs(f)    : 0.1394703406502497
        Cs(r)    : -0.1394703406502497
        Cl(f)    : 0.3534551533155363
        Cl(r)    : 0.5727580142866939
Time = 25

smoothSolver:  Solving for Ux, Initial residual = 5.217310644812706e-06, Final residual = 2.249000860285711e-07, No Iterations 2
smoothSolver:  Solving for Uy, Initial residual = 4.472171698463356e-06, Final residual = 1.999653955287779e-07, No Iterations 2
GAMG:  Solving for p, Initial residual = 5.608477456685509e-05, Final residual = 5.585162997981364e-06, No Iterations 55
time step continuity errors : sum local = 2.456662297217267e-11, global = 2.187664423331367e-11, cumulative = 4.01742617097702e-09
smoothSolver:  Solving for omega, Initial residual = 1.734466643389731e-08, Final residual = 1.171528084493656e-09, No Iterations 1
smoothSolver:  Solving for k, Initial residual = 1.229021083058589e-06, Final residual = 8.856750097125465e-08, No Iterations 1
bounding k, min: 0 max: 0.0496829492559886 average: 0.0004256334961319937
ExecutionTime = 9.779999999999999 s  ClockTime = 10 s

forceCoeffs forceCoeffs execute:
    Coefficients
        Cd       : 0.1417017120942057	(pressure: 0.1332025396840886	viscous: 0.008499172410117054)
        Cs       : 1.369041096695139e-23	(pressure: 5.980611903722743e-22	viscous: -5.84370779405323e-22)
        Cl       : 0.9410846074202249	(pressure: 0.9429809303187006	viscous: -0.001896322898475602)
        CmRoll       : -0.9410846074202251	(pressure: -0.9429809303187008	viscous: 0.001896322898475602)
        CmPitch       : -0.1122471712652714	(pressure: -0.1129543685460647	viscous: 0.0007071972807932267)
        CmYaw       : 0.1417017120942057	(pressure: 0.1332025396840886	viscous: 0.008499172410117054)
        Cd(f)    : -0.8702337513731223
        Cd(r)    : 1.011935463467328
        Cs(f)    : 0.1417017120942057
        Cs(r)    : -0.1417017120942057
        Cl(f)    : 0.358295132444841
        Cl(r)    : 0.5827894749753839
Time = 26

smoothSolver:  Solving for Ux, Initial residual = 5.315817673626401e-06, Final residual = 2.254750280295649e-07, No Iterations 2
smoothSolver:  Solving for Uy, Initial residual = 4.575347582663712e-06, Final residual = 2.025730540699027e-07, No Iterations 2
GAMG:  Solving for p, Initial residual = 5.787674793396688e-05, Final residual = 5.743672915649001e-06, No Iterations 50
time step continuity errors : sum local = 2.533364844431633e-11, global = 2.25746427301416e-11, cumulative = 4.040000813707161e-09
smoothSolver:  Solving for omega, Initial residual = 1.576476784151887e-08, Final residual = 1.07922134084287e-09, No Iterations 1
smoothSolver:  Solving for k, Initial residual = 1.090017608300928e-06, Final residual = 8.08373305063518e-08, No Iterations 1
bounding k, min: 0 max: 0.05149139726893161 average: 0.0004393933398253542
ExecutionTime = 10.16 s  ClockTime = 10 s

forceCoeffs forceCoeffs execute:
    Coefficients
        Cd       : 0.1436401916907028	(pressure: 0.1352328157220551	viscous: 0.008407375968647648)
        Cs       : 4.516511760071139e-23	(pressure: 6.390392019659658e-22	viscous: -5.938740843652544e-22)
        Cl       : 0.9552832432813116	(pressure: 0.9571587191215895	viscous: -0.001875475840277762)
        CmRoll       : -0.9552832432813118	(pressure: -0.9571587191215896	viscous: 0.001875475840277762)
        CmPitch       : -0.1143896305713472	(pressure: -0.1150899008217828	viscous: 0.0007002702504355836)
        CmYaw       : 0.1436401916907028	(pressure: 0.1352328157220551	viscous: 0.008407375968647646)
        Cd(f)    : -0.8834631474359603
        Cd(r)    : 1.027103339126663
        Cs(f)    : 0.1436401916907028
        Cs(r)    : -0.1436401916907028
        Cl(f)    : 0.3632519910693086
        Cl(r)    : 0.592031252212003
Time = 27

smoothSolver:  Solving for Ux, Initial residual = 5.407311442585714e-06, Final residual = 2.249453354857679e-07, No Iterations 2
smoothSolver:  Solving for Uy, Initial residual = 4.648636865056135e-06, Final residual = 2.043628320930636e-07, No Iterations 2
GAMG:  Solving for p, Initial residual = 6.085552832319258e-05, Final residual = 5.950485894238725e-06, No Iterations 42
time step continuity errors : sum local = 2.633521822229392e-11, global = 2.330441859711712e-11, cumulative = 4.063305232304278e-09
smoothSolver:  Solving for omega, Initial residual = 1.443054828128601e-08, Final residual = 9.986758765256331e-10, No Iterations 1
smoothSolver:  Solving for k, Initial residual = 9.714352654379074e-07, Final residual = 7.392403334704737e-08, No Iterations 1
bounding k, min: 0 max: 0.05130556434444443 average: 0.0004528562065475283
ExecutionTime = 10.5 s  ClockTime = 10 s

forceCoeffs forceCoeffs execute:
    Coefficients
        Cd       : 0.1449162009125347	(pressure: 0.1365916773090389	viscous: 0.008324523603495807)
        Cs       : 7.241575950193046e-23	(pressure: 6.701338238603772e-22	viscous: -5.977180643584467e-22)
        Cl       : 0.9682308797145794	(pressure: 0.9700873223272437	viscous: -0.001856442612664294)
        CmRoll       : -0.9682308797145796	(pressure: -0.9700873223272438	viscous: 0.001856442612664294)
        CmPitch       : -0.1161741151928803	(pressure: -0.1168687164093863	viscous: 0.0006946012165059777)
        CmYaw       : 0.1449162009125347	(pressure: 0.1365916773090389	viscous: 0.008324523603495806)
        Cd(f)    : -0.8957727792583122
        Cd(r)    : 1.040688980170847
        Cs(f)    : 0.1449162009125347
        Cs(r)    : -0.1449162009125347
        Cl(f)    : 0.3679413246644094
        Cl(r)    : 0.60028955505017
Time = 28

smoothSolver:  Solving for Ux, Initial residual = 5.504740156129457e-06, Final residual = 2.240841999546903e-07, No Iterations 2
smoothSolver:  Solving for Uy, Initial residual = 4.749540986556321e-06, Final residual = 2.063943129503436e-07, No Iterations 2
GAMG:  Solving for p, Initial residual = 6.38196876397156e-05, Final residual = 6.258503493580982e-06, No Iterations 36
time step continuity errors : sum local = 2.781778236250763e-11, global = 2.405059013965686e-11, cumulative = 4.087355822443935e-09
smoothSolver:  Solving for omega, Initial residual = 1.325596660819927e-08, Final residual = 9.272541692648982e-10, No Iterations 1
smoothSolver:  Solving for k, Initial residual = 8.703091138764214e-07, Final residual = 6.765257655123632e-08, No Iterations 1
bounding k, min: 0 max: 0.05112993662583595 average: 0.0004659346540286962
ExecutionTime = 10.84 s  ClockTime = 11 s

forceCoeffs forceCoeffs execute:
    Coefficients
        Cd       : 0.1459399826575626	(pressure: 0.1376906657866753	viscous: 0.008249316870887239)
        Cs       : 9.50340369338865e-23	(pressure: 6.998303010130036e-22	viscous: -6.047962640791171e-22)
        Cl       : 0.9802567063362075	(pressure: 0.9820953259544866	viscous: -0.001838619618278987)
        CmRoll       : -0.9802567063362077	(pressure: -0.9820953259544867	viscous: 0.001838619618278987)
        CmPitch       : -0.1176791219063993	(pressure: -0.1183689519793522	viscous: 0.0006898300729529155)
        CmYaw       : 0.1459399826575626	(pressure: 0.1376906657866753	viscous: 0.008249316870887239)
        Cd(f)    : -0.9072867150074264
        Cd(r)    : 1.053226697664989
        Cs(f)    : 0.1459399826575626
        Cs(r)    : -0.1459399826575626
        Cl(f)    : 0.3724492312617045
        Cl(r)    : 0.6078074750745031
Time = 29

smoothSolver:  Solving for Ux, Initial residual = 5.591011575580557e-06, Final residual = 2.224594343027837e-07, No Iterations 2
smoothSolver:  Solving for Uy, Initial residual = 4.85697975010466e-06, Final residual = 2.082740046653532e-07, No Iterations 2
GAMG:  Solving for p, Initial residual = 6.666096978890119e-05, Final residual = 6.522273801672387e-06, No Iterations 34
time step continuity errors : sum local = 2.920010405375727e-11, global = 2.497150115721776e-11, cumulative = 4.112327323601153e-09
smoothSolver:  Solving for omega, Initial residual = 1.223780419756025e-08, Final residual = 8.632643147852976e-10, No Iterations 1
smoothSolver:  Solving for k, Initial residual = 7.832380150080952e-07, Final residual = 6.198919135310483e-08, No Iterations 1
bounding k, min: 0 max: 0.05071279590087495 average: 0.0004784678096077149
ExecutionTime = 11.16 s  ClockTime = 11 s

forceCoeffs forceCoeffs execute:
    Coefficients
        Cd       : 0.1465533581714855	(pressure: 0.1383726341279476	viscous: 0.008180724043537884)
        Cs       : 1.156934397446249e-22	(pressure: 7.31271204594464e-22	viscous: -6.15577764849839e-22)
        Cl       : 0.9912499706082056	(pressure: 0.9930716807444279	viscous: -0.00182171013622221)
        CmRoll       : -0.9912499706082057	(pressure: -0.993071680744428	viscous: 0.001821710136222209)
        CmPitch       : -0.1188639511437104	(pressure: -0.1195497505807171	viscous: 0.000685799437006627)
        CmYaw       : 0.1465533581714855	(pressure: 0.1383726341279476	viscous: 0.008180724043537882)
        Cd(f)    : -0.917973291522463
        Cd(r)    : 1.064526649693949
        Cs(f)    : 0.1465533581714855
        Cs(r)    : -0.1465533581714855
        Cl(f)    : 0.3767610341603924
        Cl(r)    : 0.6144889364478132
Time = 30

smoothSolver:  Solving for Ux, Initial residual = 5.671840377095914e-06, Final residual = 2.200850667015269e-07, No Iterations 2
smoothSolver:  Solving for Uy, Initial residual = 4.972865417266197e-06, Final residual = 2.10326342520133e-07, No Iterations 2
GAMG:  Solving for p, Initial residual = 6.939922076265324e-05, Final residual = 6.927522294979609e-06, No Iterations 33
time step continuity errors : sum local = 3.133058655347621e-11, global = -2.660296613067446e-11, cumulative = 4.085724357470478e-09
smoothSolver:  Solving for omega, Initial residual = 1.134029637548124e-08, Final residual = 8.056968995424534e-10, No Iterations 1
smoothSolver:  Solving for k, Initial residual = 7.081862445414232e-07, Final residual = 5.68425915865759e-08, No Iterations 1
bounding k, min: 0 max: 0.05067802082372359 average: 0.0004905131299927
ExecutionTime = 11.46 s  ClockTime = 11 s

forceCoeffs forceCoeffs execute:
    Coefficients
        Cd       : 0.1468417049857967	(pressure: 0.1387237999099195	viscous: 0.008117905075877238)
        Cs       : 1.344653531103903e-22	(pressure: 7.642645502326563e-22	viscous: -6.29799197122266e-22)
        Cl       : 1.00130551631857	(pressure: 1.003110993952708	viscous: -0.001805477634138235)
        CmRoll       : -1.00130551631857	(pressure: -1.003110993952708	viscous: 0.001805477634138235)
        CmPitch       : -0.1197509215793813	(pressure: -0.1204332707488853	viscous: 0.0006823491695039457)
        CmYaw       : 0.1468417049857967	(pressure: 0.1387237999099195	viscous: 0.008117905075877237)
        Cd(f)    : -0.9278846638256713
        Cd(r)    : 1.074726368811468
        Cs(f)    : 0.1468417049857967
        Cs(r)    : -0.1468417049857967
        Cl(f)    : 0.3809018365799036
        Cl(r)    : 0.6204036797386662
Time = 31

smoothSolver:  Solving for Ux, Initial residual = 5.78708146386267e-06, Final residual = 2.172904452792055e-07, No Iterations 2
smoothSolver:  Solving for Uy, Initial residual = 5.14451109815139e-06, Final residual = 2.125246634060616e-07, No Iterations 2
GAMG:  Solving for p, Initial residual = 7.056204018897965e-05, Final residual = 6.776455092913726e-06, No Iterations 32
time step continuity errors : sum local = 3.099582394214178e-11, global = -2.683144549806947e-11, cumulative = 4.058892911972409e-09
smoothSolver:  Solving for omega, Initial residual = 1.052249100817578e-08, Final residual = 7.536559986410302e-10, No Iterations 1
smoothSolver:  Solving for k, Initial residual = 6.42549314118657e-07, Final residual = 5.225108634378789e-08, No Iterations 1
bounding k, min: 0 max: 0.05036706939491979 average: 0.0005019459477382888
ExecutionTime = 11.78 s  ClockTime = 12 s

forceCoeffs forceCoeffs execute:
    Coefficients
        Cd       : 0.1469475618836654	(pressure: 0.1388872796631848	viscous: 0.008060282220480561)
        Cs       : 1.525305242191179e-22	(pressure: 7.976655414795509e-22	viscous: -6.45135017260433e-22)
        Cl       : 1.010835385620436	(pressure: 1.012624959323394	viscous: -0.001789573702957842)
        CmRoll       : -1.010835385620436	(pressure: -1.012624959323394	viscous: 0.001789573702957842)
        CmPitch       : -0.1204271404976301	(pressure: -0.121106350161382	viscous: 0.0006792096637518829)
        CmYaw       : 0.1469475618836654	(pressure: 0.1388872796631848	viscous: 0.008060282220480559)
        Cd(f)    : -0.9373616046786031
        Cd(r)    : 1.084309166562268
        Cs(f)    : 0.1469475618836654
        Cs(r)    : -0.1469475618836654
        Cl(f)    : 0.3849905523125878
        Cl(r)    : 0.6258448333078479
Time = 32

smoothSolver:  Solving for Ux, Initial residual = 5.858607778151796e-06, Final residual = 2.138006289149689e-07, No Iterations 2
smoothSolver:  Solving for Uy, Initial residual = 5.287433099489926e-06, Final residual = 2.154605047527869e-07, No Iterations 2
GAMG:  Solving for p, Initial residual = 7.437788916321468e-05, Final residual = 7.426724904326263e-06, No Iterations 29
time step continuity errors : sum local = 3.440042630741324e-11, global = 2.849455418775492e-11, cumulative = 4.087387466160163e-09
smoothSolver:  Solving for omega, Initial residual = 9.79610445203256e-09, Final residual = 7.065798780958945e-10, No Iterations 1
smoothSolver:  Solving for k, Initial residual = 5.865965109486677e-07, Final residual = 4.823810736170919e-08, No Iterations 1
bounding k, min: 0 max: 0.04994805255291549 average: 0.0005128400574725675
ExecutionTime = 12.08 s  ClockTime = 12 s

forceCoeffs forceCoeffs execute:
    Coefficients
        Cd       : 0.1469282078266051	(pressure: 0.1389208671591766	viscous: 0.008007340667428567)
        Cs       : 1.694550638683346e-22	(pressure: 8.293936146960964e-22	viscous: -6.599385508277619e-22)
        Cl       : 1.019605275514636	(pressure: 1.021378866813989	viscous: -0.001773591299353494)
        CmRoll       : -1.019605275514636	(pressure: -1.021378866813989	viscous: 0.001773591299353494)
        CmPitch       : -0.1208444998406694	(pressure: -0.1215205645612374	viscous: 0.0006760647205680582)
        CmYaw       : 0.1469282078266051	(pressure: 0.1389208671591766	viscous: 0.008007340667428565)
        Cd(f)    : -0.946141171601333
        Cd(r)    : 1.093069379427938
        Cs(f)    : 0.1469282078266051
        Cs(r)    : -0.1469282078266051
        Cl(f)    : 0.3889581379166485
        Cl(r)    : 0.6306471375979872
Time = 33

smoothSolver:  Solving for Ux, Initial residual = 5.921798891674652e-06, Final residual = 2.097312023607703e-07, No Iterations 2
smoothSolver:  Solving for Uy, Initial residual = 5.436082989204843e-06, Final residual = 2.17696951479202e-07, No Iterations 2
GAMG:  Solving for p, Initial residual = 7.696341948861249e-05, Final residual = 7.336973984439914e-06, No Iterations 26
time step continuity errors : sum local = 3.441030243143546e-11, global = 2.822563402016388e-11, cumulative = 4.115613100180327e-09
smoothSolver:  Solving for omega, Initial residual = 9.15074823655073e-09, Final residual = 6.64357867966882e-10, No Iterations 1
smoothSolver:  Solving for k, Initial residual = 5.375187558976657e-07, Final residual = 4.468040116669242e-08, No Iterations 1
bounding k, min: 0 max: 0.04902965786425255 average: 0.0005232521247824191
ExecutionTime = 12.38 s  ClockTime = 12 s

forceCoeffs forceCoeffs execute:
    Coefficients
        Cd       : 0.1468893152976111	(pressure: 0.1389312100704932	viscous: 0.007958105227117925)
        Cs       : 1.859192269908681e-22	(pressure: 8.597494498888611e-22	viscous: -6.73830222897993e-22)
        Cl       : 1.02833378574679	(pressure: 1.030090841717452	viscous: -0.001757055970661635)
        CmRoll       : -1.02833378574679	(pressure: -1.030090841717452	viscous: 0.001757055970661635)
        CmPitch       : -0.121155066686516	(pressure: -0.1218276810859223	viscous: 0.0006726143994062754)
        CmYaw       : 0.1468893152976111	(pressure: 0.1389312100704932	viscous: 0.007958105227117922)
        Cd(f)    : -0.9548891280979849
        Cd(r)    : 1.101778443395596
        Cs(f)    : 0.1468893152976111
        Cs(r)    : -0.1468893152976111
        Cl(f)    : 0.3930118261868791
        Cl(r)    : 0.6353219595599111
Time = 34

smoothSolver:  Solving for Ux, Initial residual = 5.983917016045956e-06, Final residual = 2.05629618910396e-07, No Iterations 2
smoothSolver:  Solving for Uy, Initial residual = 5.508353356484281e-06, Final residual = 2.200455401864037e-07, No Iterations 2
GAMG:  Solving for p, Initial residual = 8.036521071306159e-05, Final residual = 7.890289271972486e-06, No Iterations 24
time step continuity errors : sum local = 3.74586267861546e-11, global = 2.975168146150743e-11, cumulative = 4.145364781641834e-09
smoothSolver:  Solving for omega, Initial residual = 8.576965985487272e-09, Final residual = 6.25772681314665e-10, No Iterations 1
smoothSolver:  Solving for k, Initial residual = 4.95297222545413e-07, Final residual = 4.161923641254342e-08, No Iterations 1
bounding k, min: 0 max: 0.04736495901398678 average: 0.0005332876235939613
ExecutionTime = 12.69 s  ClockTime = 13 s

forceCoeffs forceCoeffs execute:
    Coefficients
        Cd       : 0.1466607804532893	(pressure: 0.1387488591533315	viscous: 0.007911921299957844)
        Cs       : 2.02138251357375e-22	(pressure: 8.892348624426026e-22	viscous: -6.870966110852276e-22)
        Cl       : 1.036552322004974	(pressure: 1.038292593629068	viscous: -0.001740271624093768)
        CmRoll       : -1.036552322004974	(pressure: -1.038292593629068	viscous: 0.001740271624093768)
        CmPitch       : -0.12127090434849	(pressure: -0.1219399808675949	viscous: 0.0006690765191049639)
        CmYaw       : 0.1466607804532893	(pressure: 0.1387488591533315	viscous: 0.007911921299957844)
        Cd(f)    : -0.9632219317783297
        Cd(r)    : 1.109882712231619
        Cs(f)    : 0.1466607804532893
        Cs(r)    : -0.1466607804532893
        Cl(f)    : 0.397005256653997
        Cl(r)    : 0.6395470653509769
Time = 35

smoothSolver:  Solving for Ux, Initial residual = 6.067760474571859e-06, Final residual = 2.033754630363309e-07, No Iterations 2
smoothSolver:  Solving for Uy, Initial residual = 5.642118525091651e-06, Final residual = 2.230299996892944e-07, No Iterations 2
GAMG:  Solving for p, Initial residual = 8.32967580828105e-05, Final residual = 7.737276072308403e-06, No Iterations 24
time step continuity errors : sum local = 3.718351506794071e-11, global = 2.961283592205628e-11, cumulative = 4.17497761756389e-09
smoothSolver:  Solving for omega, Initial residual = 8.061074493811803e-09, Final residual = 5.906598244451509e-10, No Iterations 1
smoothSolver:  Solving for k, Initial residual = 4.576205934919903e-07, Final residual = 3.89010832397369e-08, No Iterations 1
bounding k, min: 0 max: 0.04613985102864072 average: 0.0005430307045486242
ExecutionTime = 12.98 s  ClockTime = 13 s

forceCoeffs forceCoeffs execute:
    Coefficients
        Cd       : 0.1462821357507057	(pressure: 0.1384135930100017	viscous: 0.007868542740703964)
        Cs       : 2.186177951685301e-22	(pressure: 9.184424315870269e-22	viscous: -6.998246364184968e-22)
        Cl       : 1.044656521682097	(pressure: 1.04637993861263	viscous: -0.001723416930533053)
        CmRoll       : -1.044656521682097	(pressure: -1.04637993861263	viscous: 0.001723416930533054)
        CmPitch       : -0.1212415382776206	(pressure: -0.1219070965193279	viscous: 0.0006655582417073465)
        CmYaw       : 0.1462821357507057	(pressure: 0.1384135930100017	viscous: 0.007868542740703963)
        Cd(f)    : -0.9715154538067445
        Cd(r)    : 1.11779758955745
        Cs(f)    : 0.1462821357507057
        Cs(r)    : -0.1462821357507057
        Cl(f)    : 0.4010867225634281
        Cl(r)    : 0.6435697991186693
Time = 36

smoothSolver:  Solving for Ux, Initial residual = 6.143354467548559e-06, Final residual = 2.006520068666338e-07, No Iterations 2
smoothSolver:  Solving for Uy, Initial residual = 5.78114423106827e-06, Final residual = 2.263941324452186e-07, No Iterations 2
GAMG:  Solving for p, Initial residual = 8.577100152072486e-05, Final residual = 8.165858661155358e-06, No Iterations 22
time step continuity errors : sum local = 3.978316485515962e-11, global = 3.141258453940382e-11, cumulative = 4.206390202103295e-09
smoothSolver:  Solving for omega, Initial residual = 7.580910880342489e-09, Final residual = 5.587609320539326e-10, No Iterations 1
smoothSolver:  Solving for k, Initial residual = 4.244428738148323e-07, Final residual = 3.650452921729345e-08, No Iterations 1
bounding k, min: 0 max: 0.04452859762983707 average: 0.0005526024546616317
ExecutionTime = 13.25 s  ClockTime = 13 s

forceCoeffs forceCoeffs execute:
    Coefficients
        Cd       : 0.1456089232053391	(pressure: 0.1377812003684968	viscous: 0.007827722836842263)
        Cs       : 2.358741326469814e-22	(pressure: 9.462639313167029e-22	viscous: -7.103897986697215e-22)
        Cl       : 1.05245475149312	(pressure: 1.054161387738386	viscous: -0.001706636245266328)
        CmRoll       : -1.05245475149312	(pressure: -1.054161387738386	viscous: 0.001706636245266328)
        CmPitch       : -0.1210129792815727	(pressure: -0.1216751383455486	viscous: 0.0006621590639758001)
        CmYaw       : 0.1456089232053391	(pressure: 0.1377812003684968	viscous: 0.007827722836842263)
        Cd(f)    : -0.97965028989045
        Cd(r)    : 1.125259213095789
        Cs(f)    : 0.1456089232053391
        Cs(r)    : -0.1456089232053391
        Cl(f)    : 0.405214396464987
        Cl(r)    : 0.6472403550281325
Time = 37

smoothSolver:  Solving for Ux, Initial residual = 6.204202546524214e-06, Final residual = 1.98448999902925e-07, No Iterations 2
smoothSolver:  Solving for Uy, Initial residual = 5.924534973740906e-06, Final residual = 2.303526744175575e-07, No Iterations 2
GAMG:  Solving for p, Initial residual = 8.913678652469252e-05, Final residual = 7.952659130648334e-06, No Iterations 22
time step continuity errors : sum local = 3.92210210744908e-11, global = 3.096879624918151e-11, cumulative = 4.237358998352476e-09
smoothSolver:  Solving for omega, Initial residual = 7.144548266036488e-09, Final residual = 5.29452879582582e-10, No Iterations 1
smoothSolver:  Solving for k, Initial residual = 3.946795067479385e-07, Final residual = 3.438324355554108e-08, No Iterations 1
bounding k, min: 0 max: 0.04307232528134117 average: 0.0005620264299706798
ExecutionTime = 13.52 s  ClockTime = 13 s

forceCoeffs forceCoeffs execute:
    Coefficients
        Cd       : 0.1447979323513912	(pressure: 0.1370087613870273	viscous: 0.007789170964363891)
        Cs       : 2.536616316131543e-22	(pressure: 9.737836605259029e-22	viscous: -7.201220289127486e-22)
        Cl       : 1.060344019622227	(pressure: 1.06203416876798	viscous: -0.00169014914575328)
        CmRoll       : -1.060344019622227	(pressure: -1.062034168767981	viscous: 0.00169014914575328)
        CmPitch       : -0.1206449766084833	(pressure: -0.1213040143131769	viscous: 0.0006590377046935495)
        CmYaw       : 0.1447979323513912	(pressure: 0.1370087613870273	viscous: 0.007789170964363891)
        Cd(f)    : -0.9879450534465317
        Cd(r)    : 1.132742985797923
        Cs(f)    : 0.1447979323513912
        Cs(r)    : -0.1447979323513912
        Cl(f)    : 0.4095270332026302
        Cl(r)    : 0.650816986419597
Time = 38

smoothSolver:  Solving for Ux, Initial residual = 6.266483538512994e-06, Final residual = 1.976798853049297e-07, No Iterations 2
smoothSolver:  Solving for Uy, Initial residual = 6.077678998480432e-06, Final residual = 2.348966280560258e-07, No Iterations 2
GAMG:  Solving for p, Initial residual = 9.26778297770347e-05, Final residual = 8.61763528230829e-06, No Iterations 20
time step continuity errors : sum local = 4.303211798934119e-11, global = 3.359210980664236e-11, cumulative = 4.270951108159118e-09
smoothSolver:  Solving for omega, Initial residual = 6.762911254607548e-09, Final residual = 5.026672155487678e-10, No Iterations 1
smoothSolver:  Solving for k, Initial residual = 3.690454974210732e-07, Final residual = 3.256134980576191e-08, No Iterations 1
bounding k, min: 0 max: 0.04164966094718272 average: 0.0005712134564046432
ExecutionTime = 13.78 s  ClockTime = 14 s

forceCoeffs forceCoeffs execute:
    Coefficients
        Cd       : 0.1437671066438477	(pressure: 0.1360143783936187	viscous: 0.007752728250229045)
        Cs       : 2.721213192007941e-22	(pressure: 1.000324904637862e-21	viscous: -7.282035854370684e-22)
        Cl       : 1.067859507928052	(pressure: 1.069533709228637	viscous: -0.001674201300584731)
        CmRoll       : -1.067859507928052	(pressure: -1.069533709228637	viscous: 0.001674201300584731)
        CmPitch       : -0.1200856773836335	(pressure: -0.1207420494932558	viscous: 0.0006563721096222463)
        CmYaw       : 0.1437671066438477	(pressure: 0.1360143783936187	viscous: 0.007752728250229044)
        Cd(f)    : -0.9959759546061285
        Cd(r)    : 1.139743061249976
        Cs(f)    : 0.1437671066438477
        Cs(r)    : -0.1437671066438477
        Cl(f)    : 0.4138440765803927
        Cl(r)    : 0.6540154313476597
Time = 39

smoothSolver:  Solving for Ux, Initial residual = 6.304437716745286e-06, Final residual = 1.961108821491116e-07, No Iterations 2
smoothSolver:  Solving for Uy, Initial residual = 6.23475688879995e-06, Final residual = 2.397770654001442e-07, No Iterations 2
GAMG:  Solving for p, Initial residual = 9.662579897197047e-05, Final residual = 8.594402699426193e-06, No Iterations 20
time step continuity errors : sum local = 4.343877586436133e-11, global = 3.404326913110766e-11, cumulative = 4.304994377290226e-09
smoothSolver:  Solving for omega, Initial residual = 6.401317598627882e-09, Final residual = 4.779758026047276e-10, No Iterations 1
smoothSolver:  Solving for k, Initial residual = 3.463008072378472e-07, Final residual = 3.095740522161053e-08, No Iterations 1
bounding k, min: 0 max: 0.04026404683978686 average: 0.0005802369769488681
ExecutionTime = 14.04 s  ClockTime = 14 s

forceCoeffs forceCoeffs execute:
    Coefficients
        Cd       : 0.1425752013313159	(pressure: 0.1348573266241938	viscous: 0.007717874707122104)
        Cs       : 2.910616283710652e-22	(pressure: 1.027587713068693e-21	viscous: -7.365260846976274e-22)
        Cl       : 1.075308268176927	(pressure: 1.07696717921847	viscous: -0.00165891104154237)
        CmRoll       : -1.075308268176927	(pressure: -1.07696717921847	viscous: 0.00165891104154237)
        CmPitch       : -0.1193492429965475	(pressure: -0.1200035351984478	viscous: 0.0006542922019003485)
        CmYaw       : 0.1425752013313158	(pressure: 0.1348573266241938	viscous: 0.007717874707122103)
        Cd(f)    : -1.00402066751127
        Cd(r)    : 1.146595868842585
        Cs(f)    : 0.1425752013313158
        Cs(r)    : -0.1425752013313158
        Cl(f)    : 0.4183048910919163
        Cl(r)    : 0.6570033770850112
Time = 40

smoothSolver:  Solving for Ux, Initial residual = 6.335002510782245e-06, Final residual = 1.950567860424729e-07, No Iterations 2
smoothSolver:  Solving for Uy, Initial residual = 6.393383460899153e-06, Final residual = 2.450008766081809e-07, No Iterations 2
GAMG:  Solving for p, Initial residual = 9.991500420532684e-05, Final residual = 9.817431129241319e-06, No Iterations 18
time step continuity errors : sum local = 5.020046330144984e-11, global = 3.905592262003553e-11, cumulative = 4.344050299910262e-09
smoothSolver:  Solving for omega, Initial residual = 6.087239322838004e-09, Final residual = 4.553682051881915e-10, No Iterations 1
smoothSolver:  Solving for k, Initial residual = 3.253107582740852e-07, Final residual = 2.950177285569202e-08, No Iterations 1
bounding k, min: 0 max: 0.04388824161772399 average: 0.0005891140030109664
ExecutionTime = 14.27 s  ClockTime = 14 s

forceCoeffs forceCoeffs execute:
    Coefficients
        Cd       : 0.1412033167298474	(pressure: 0.1335190256117478	viscous: 0.007684291118099602)
        Cs       : 3.104981482699094e-22	(pressure: 1.05467078185215e-21	viscous: -7.441726335822408e-22)
        Cl       : 1.082207673695415	(pressure: 1.083851860471439	viscous: -0.001644186776023668)
        CmRoll       : -1.082207673695415	(pressure: -1.083851860471439	viscous: 0.001644186776023668)
        CmPitch       : -0.1184340601085659	(pressure: -0.1190868228222528	viscous: 0.000652762713686967)
        CmYaw       : 0.1412033167298474	(pressure: 0.1335190256117478	viscous: 0.007684291118099601)
        Cd(f)    : -1.011606015330492
        Cd(r)    : 1.152809332060339
        Cs(f)    : 0.1412033167298474
        Cs(r)    : -0.1412033167298474
        Cl(f)    : 0.4226697767391418
        Cl(r)    : 0.6595378969562735
Time = 41

smoothSolver:  Solving for Ux, Initial residual = 6.379849877507379e-06, Final residual = 1.943260945579635e-07, No Iterations 2
smoothSolver:  Solving for Uy, Initial residual = 6.5617756639196e-06, Final residual = 2.505261403120233e-07, No Iterations 2
GAMG:  Solving for p, Initial residual = 0.000102632614449296, Final residual = 9.901969777622915e-06, No Iterations 19
time step continuity errors : sum local = 5.123633123705541e-11, global = -3.938965611487837e-11, cumulative = 4.304660643795383e-09
smoothSolver:  Solving for omega, Initial residual = 5.792018241366802e-09, Final residual = 4.344190142460802e-10, No Iterations 1
smoothSolver:  Solving for k, Initial residual = 3.064918290614298e-07, Final residual = 2.816591902809613e-08, No Iterations 1
bounding k, min: 0 max: 0.04735077555483554 average: 0.0005978996975127241
ExecutionTime = 14.51 s  ClockTime = 14 s

forceCoeffs forceCoeffs execute:
    Coefficients
        Cd       : 0.1397937202288509	(pressure: 0.1321418219243712	viscous: 0.007651898304479708)
        Cs       : 3.306499577183947e-22	(pressure: 1.083672829948787e-21	viscous: -7.530228722303928e-22)
        Cl       : 1.089227400780648	(pressure: 1.090857260311615	viscous: -0.001629859530966967)
        CmRoll       : -1.089227400780648	(pressure: -1.090857260311615	viscous: 0.001629859530966967)
        CmPitch       : -0.1173707129080875	(pressure: -0.1180223563945298	viscous: 0.0006516434864422834)
        CmYaw       : 0.1397937202288509	(pressure: 0.1321418219243712	viscous: 0.007651898304479707)
        Cd(f)    : -1.019330540666223
        Cd(r)    : 1.159124260895074
        Cs(f)    : 0.1397937202288509
        Cs(r)    : -0.1397937202288509
        Cl(f)    : 0.4272429874822367
        Cl(r)    : 0.6619844132984117
Time = 42

smoothSolver:  Solving for Ux, Initial residual = 6.49432326329304e-06, Final residual = 1.953199139501848e-07, No Iterations 2
smoothSolver:  Solving for Uy, Initial residual = 6.834152170905089e-06, Final residual = 2.566202411120011e-07, No Iterations 2
GAMG:  Solving for p, Initial residual = 0.0001013383322074162, Final residual = 9.390947558461377e-06, No Iterations 18
time step continuity errors : sum local = 4.927388294669036e-11, global = -3.902575896058779e-11, cumulative = 4.265634884834795e-09
smoothSolver:  Solving for omega, Initial residual = 5.494964244838972e-09, Final residual = 4.151300635502707e-10, No Iterations 1
smoothSolver:  Solving for k, Initial residual = 2.894467241544486e-07, Final residual = 2.695638448093617e-08, No Iterations 1
bounding k, min: 0 max: 0.05026330780584193 average: 0.0006067144081415529
ExecutionTime = 14.77 s  ClockTime = 15 s

forceCoeffs forceCoeffs execute:
    Coefficients
        Cd       : 0.138410577456144	(pressure: 0.1307899204287035	viscous: 0.007620657027440574)
        Cs       : 3.513586581909846e-22	(pressure: 1.113133206603132e-21	viscous: -7.617745484121474e-22)
        Cl       : 1.095810074340822	(pressure: 1.097425773335379	viscous: -0.001615698994557193)
        CmRoll       : -1.095810074340822	(pressure: -1.097425773335379	viscous: 0.001615698994557193)
        CmPitch       : -0.1162065239492564	(pressure: -0.1168573208445257	viscous: 0.000650796895269297)
        CmYaw       : 0.138410577456144	(pressure: 0.1307899204287035	viscous: 0.007620657027440571)
        Cd(f)    : -1.02660478561275
        Cd(r)    : 1.165015363068894
        Cs(f)    : 0.138410577456144
        Cs(r)    : -0.138410577456144
        Cl(f)    : 0.4316985132211545
        Cl(r)    : 0.6641115611196672
Time = 43

smoothSolver:  Solving for Ux, Initial residual = 6.5219928837666e-06, Final residual = 1.962441640494486e-07, No Iterations 2
smoothSolver:  Solving for Uy, Initial residual = 6.996093238171951e-06, Final residual = 2.637090085034396e-07, No Iterations 2
GAMG:  Solving for p, Initial residual = 0.0001001824875171515, Final residual = 9.90074336104748e-06, No Iterations 18
time step continuity errors : sum local = 5.278319667538736e-11, global = -4.138213170233082e-11, cumulative = 4.224252753132464e-09
smoothSolver:  Solving for omega, Initial residual = 5.211687520073578e-09, Final residual = 3.971074404546153e-10, No Iterations 1
smoothSolver:  Solving for k, Initial residual = 2.742189085053185e-07, Final residual = 2.584015116024524e-08, No Iterations 1
bounding k, min: 0 max: 0.05265915534248752 average: 0.0006155230137522496
ExecutionTime = 15.02 s  ClockTime = 15 s

forceCoeffs forceCoeffs execute:
    Coefficients
        Cd       : 0.1371037446415914	(pressure: 0.1295131088159269	viscous: 0.007590635825664497)
        Cs       : 3.725160418517622e-22	(pressure: 1.143710735331424e-21	viscous: -7.711946934796615e-22)
        Cl       : 1.102062599423517	(pressure: 1.103664131492218	viscous: -0.001601532068701492)
        CmRoll       : -1.102062599423517	(pressure: -1.103664131492218	viscous: 0.001601532068701492)
        CmPitch       : -0.1149613717007785	(pressure: -0.115611482819711	viscous: 0.000650111118932453)
        CmYaw       : 0.1371037446415914	(pressure: 0.1295131088159269	viscous: 0.007590635825664497)
        Cd(f)    : -1.033510727102721
        Cd(r)    : 1.170614471744312
        Cs(f)    : 0.1371037446415914
        Cs(r)    : -0.1371037446415914
        Cl(f)    : 0.4360699280109798
        Cl(r)    : 0.6659926714125369
Time = 44

smoothSolver:  Solving for Ux, Initial residual = 6.560400832859181e-06, Final residual = 1.969448276770546e-07, No Iterations 2
smoothSolver:  Solving for Uy, Initial residual = 7.158353676422577e-06, Final residual = 2.711468883481054e-07, No Iterations 2
GAMG:  Solving for p, Initial residual = 9.720192134303144e-05, Final residual = 9.000504977406689e-06, No Iterations 20
time step continuity errors : sum local = 4.883839986387013e-11, global = -3.836229151837216e-11, cumulative = 4.185890461614092e-09
smoothSolver:  Solving for omega, Initial residual = 4.971132938015859e-09, Final residual = 3.804400042559743e-10, No Iterations 1
smoothSolver:  Solving for k, Initial residual = 2.610312731984025e-07, Final residual = 2.482149770842249e-08, No Iterations 1
bounding k, min: 0 max: 0.05453245362001086 average: 0.0006242211338148349
ExecutionTime = 15.27 s  ClockTime = 15 s

forceCoeffs forceCoeffs execute:
    Coefficients
        Cd       : 0.1360616035475064	(pressure: 0.1284997161308505	viscous: 0.007561887416655982)
        Cs       : 3.944278578218144e-22	(pressure: 1.176332720286287e-21	viscous: -7.819048624644722e-22)
        Cl       : 1.108434533017036	(pressure: 1.110021743621759	viscous: -0.001587210604722854)
        CmRoll       : -1.108434533017036	(pressure: -1.110021743621759	viscous: 0.001587210604722854)
        CmPitch       : -0.1136780582626208	(pressure: -0.1143274934893021	viscous: 0.0006494352266813414)
        CmYaw       : 0.1360616035475065	(pressure: 0.1284997161308505	viscous: 0.007561887416655981)
        Cd(f)    : -1.040403731243283
        Cd(r)    : 1.17646533479079
        Cs(f)    : 0.1360616035475065
        Cs(r)    : -0.1360616035475065
        Cl(f)    : 0.4405392082458974
        Cl(r)    : 0.667895324771139
Time = 45

smoothSolver:  Solving for Ux, Initial residual = 6.594571616336264e-06, Final residual = 1.986772773278351e-07, No Iterations 2
[...]
smoothSolver:  Solving for Uy, Initial residual = 9.751911964400324e-07, Final residual = 3.367298472973031e-08, No Iterations 2
GAMG:  Solving for p, Initial residual = 2.665570360806411e-07, Final residual = 2.664437816436526e-08, No Iterations 42
time step continuity errors : sum local = 3.412397917563375e-13, global = -2.981497731436201e-13, cumulative = 4.271605460362552e-09
smoothSolver:  Solving for omega, Initial residual = 3.970684383766145e-11, Final residual = 8.207439555443252e-12, No Iterations 1
smoothSolver:  Solving for k, Initial residual = 8.260259635193057e-09, Final residual = 5.896508978820174e-10, No Iterations 2
bounding k, min: 0 max: 0.02876176073836574 average: 0.001607146482094503
ExecutionTime = 179.68 s  ClockTime = 180 s

forceCoeffs forceCoeffs execute:
    Coefficients
        Cd       : 0.01853924156836693	(pressure: 0.01363087508285774	viscous: 0.004908366485509194)
        Cs       : 1.087858836065887e-21	(pressure: 2.236653815826145e-21	viscous: -1.148794979760258e-21)
        Cl       : 1.563226124319485	(pressure: 1.562837411560339	viscous: 0.0003887127591457343)
        CmRoll       : -1.563226124319485	(pressure: -1.562837411560339	viscous: -0.0003887127591457345)
        CmPitch       : -0.07840553179216952	(pressure: -0.07907799397106069	viscous: 0.0006724621788911609)
        CmYaw       : 0.01853924156836704	(pressure: 0.01363087508285785	viscous: 0.004908366485509194)
        Cd(f)    : -1.553956503535302
        Cd(r)    : 1.572495745103668
        Cs(f)    : 0.01853924156836704
        Cs(r)    : -0.01853924156836704
        Cl(f)    : 0.7032075303675729
        Cl(r)    : 0.8600185939519118
Time = 509

smoothSolver:  Solving for Ux, Initial residual = 2.020227374416376e-07, Final residual = 6.313911260780744e-09, No Iterations 2
smoothSolver:  Solving for Uy, Initial residual = 9.530833498113285e-07, Final residual = 3.221113158167285e-08, No Iterations 2
GAMG:  Solving for p, Initial residual = 2.584994166177277e-07, Final residual = 2.563999738225188e-08, No Iterations 44
time step continuity errors : sum local = 3.28379451602059e-13, global = -2.879201250803757e-13, cumulative = 4.271317540237471e-09
smoothSolver:  Solving for omega, Initial residual = 3.952761178313111e-11, Final residual = 8.170565437170191e-12, No Iterations 1
smoothSolver:  Solving for k, Initial residual = 8.226958014827968e-09, Final residual = 5.876583934285525e-10, No Iterations 2
bounding k, min: 0 max: 0.02876390594885368 average: 0.00160645173868108
ExecutionTime = 180.06 s  ClockTime = 180 s

forceCoeffs forceCoeffs execute:
    Coefficients
        Cd       : 0.01852484529579646	(pressure: 0.01361464889469746	viscous: 0.004910196401098998)
        Cs       : 1.087917565759053e-21	(pressure: 2.236529891675567e-21	viscous: -1.148612325916514e-21)
        Cl       : 1.56323801959137	(pressure: 1.562849561991038	viscous: 0.0003884576003317639)
        CmRoll       : -1.56323801959137	(pressure: -1.562849561991038	viscous: -0.0003884576003317639)
        CmPitch       : -0.07839754777867665	(pressure: -0.07907021809856407	viscous: 0.0006726703198874281)
        CmYaw       : 0.01852484529579652	(pressure: 0.01361464889469752	viscous: 0.004910196401098998)
        Cd(f)    : -1.553975596943471
        Cd(r)    : 1.572500442239268
        Cs(f)    : 0.01852484529579652
        Cs(r)    : -0.01852484529579652
        Cl(f)    : 0.7032214620170081
        Cl(r)    : 0.8600165575743615
Time = 510

smoothSolver:  Solving for Ux, Initial residual = 1.996574562777961e-07, Final residual = 6.296715136479293e-09, No Iterations 2
smoothSolver:  Solving for Uy, Initial residual = 9.315204981650745e-07, Final residual = 3.0799969620273e-08, No Iterations 2
GAMG:  Solving for p, Initial residual = 2.503271102673941e-07, Final residual = 2.481410477804529e-08, No Iterations 44
time step continuity errors : sum local = 3.178044709151809e-13, global = -2.78700198914806e-13, cumulative = 4.271038840038557e-09
smoothSolver:  Solving for omega, Initial residual = 3.934946484577088e-11, Final residual = 8.133686098238933e-12, No Iterations 1
smoothSolver:  Solving for k, Initial residual = 8.193734274626357e-09, Final residual = 5.856767674758165e-10, No Iterations 2
bounding k, min: 0 max: 0.02876601308540296 average: 0.001605760987757629
ExecutionTime = 180.43 s  ClockTime = 180 s

forceCoeffs forceCoeffs execute:
    Coefficients
        Cd       : 0.0185109284029835	(pressure: 0.01359890353720752	viscous: 0.004912024865775975)
        Cs       : 1.087973778238387e-21	(pressure: 2.236404286832638e-21	viscous: -1.148430508594251e-21)
        Cl       : 1.563249404138151	(pressure: 1.562861203076864	viscous: 0.000388201061286239)
        CmRoll       : -1.563249404138151	(pressure: -1.562861203076865	viscous: -0.0003882010612862392)
        CmPitch       : -0.07838965290282761	(pressure: -0.07906253079180885	viscous: 0.0006728778889812332)
        CmYaw       : 0.01851092840298355	(pressure: 0.01359890353720758	viscous: 0.004912024865775974)
        Cd(f)    : -1.553993939936659
        Cd(r)    : 1.572504868339643
        Cs(f)    : 0.01851092840298355
        Cs(r)    : -0.01851092840298355
        Cl(f)    : 0.7032350491662478
        Cl(r)    : 0.860014354971903
Time = 511

smoothSolver:  Solving for Ux, Initial residual = 1.973975823832684e-07, Final residual = 6.296844703417316e-09, No Iterations 2
smoothSolver:  Solving for Uy, Initial residual = 9.106001096058244e-07, Final residual = 2.944999409847858e-08, No Iterations 2
GAMG:  Solving for p, Initial residual = 2.423194721815878e-07, Final residual = 2.410223925827269e-08, No Iterations 44
time step continuity errors : sum local = 3.086895056504648e-13, global = -2.707047004085131e-13, cumulative = 4.270768135338148e-09
smoothSolver:  Solving for omega, Initial residual = 3.917283841382641e-11, Final residual = 8.096785046164317e-12, No Iterations 1
smoothSolver:  Solving for k, Initial residual = 8.160565274625201e-09, Final residual = 5.836896761326611e-10, No Iterations 2
bounding k, min: 0 max: 0.02876808205133889 average: 0.001605074102172588
ExecutionTime = 180.81 s  ClockTime = 181 s

forceCoeffs forceCoeffs execute:
    Coefficients
        Cd       : 0.01849734380252942	(pressure: 0.01358349213772195	viscous: 0.004913851664807473)
        Cs       : 1.088027573383081e-21	(pressure: 2.236276807632581e-21	viscous: -1.1482492342495e-21)
        Cl       : 1.563260197988318	(pressure: 1.562872254821514	viscous: 0.000387943166804441)
        CmRoll       : -1.563260197988319	(pressure: -1.562872254821514	viscous: -0.0003879431668044412)
        CmPitch       : -0.07838173940035582	(pressure: -0.07905482427215206	viscous: 0.0006730848717962436)
        CmYaw       : 0.01849734380252948	(pressure: 0.013583492137722	viscous: 0.004913851664807472)
        Cd(f)    : -1.554011526087054
        Cd(r)    : 1.572508869889583
        Cs(f)    : 0.01849734380252948
        Cs(r)    : -0.01849734380252948
        Cl(f)    : 0.7032483595938033
        Cl(r)    : 0.860011838394515
Time = 512

smoothSolver:  Solving for Ux, Initial residual = 1.952383435675066e-07, Final residual = 6.314363045854172e-09, No Iterations 2
smoothSolver:  Solving for Uy, Initial residual = 8.90382842826783e-07, Final residual = 2.817120491836909e-08, No Iterations 2
GAMG:  Solving for p, Initial residual = 2.343916269402713e-07, Final residual = 2.33290641681436e-08, No Iterations 45
time step continuity errors : sum local = 2.987889215454878e-13, global = 2.614493678525515e-13, cumulative = 4.271029584706001e-09
smoothSolver:  Solving for omega, Initial residual = 3.899678576188758e-11, Final residual = 8.060197742890984e-12, No Iterations 1
smoothSolver:  Solving for k, Initial residual = 8.127550636334756e-09, Final residual = 5.81696382516705e-10, No Iterations 2
bounding k, min: 0 max: 0.02877011277843123 average: 0.001604390965957499
ExecutionTime = 181.2 s  ClockTime = 181 s

forceCoeffs forceCoeffs execute:
    Coefficients
        Cd       : 0.01848407838886718	(pressure: 0.0135684017302288	viscous: 0.004915676658638375)
        Cs       : 1.088079639442001e-21	(pressure: 2.236147806567225e-21	viscous: -1.148068167125224e-21)
        Cl       : 1.563270443469651	(pressure: 1.562882759523148	viscous: 0.0003876839465036379)
        CmRoll       : -1.563270443469651	(pressure: -1.562882759523148	viscous: -0.0003876839465036379)
        CmPitch       : -0.078373813836182	(pressure: -0.07904710508761556	viscous: 0.0006732912514335578)
        CmYaw       : 0.01848407838886718	(pressure: 0.0135684017302288	viscous: 0.004915676658638374)
        Cd(f)    : -1.554028404275218
        Cd(r)    : 1.572512482664085
        Cs(f)    : 0.01848407838886718
        Cs(r)    : -0.01848407838886718
        Cl(f)    : 0.7032614078986436
        Cl(r)    : 0.8600090355710076
Time = 513

smoothSolver:  Solving for Ux, Initial residual = 1.931624167557464e-07, Final residual = 6.34806450494066e-09, No Iterations 2
smoothSolver:  Solving for Uy, Initial residual = 8.709465738143949e-07, Final residual = 2.697403983332597e-08, No Iterations 2
GAMG:  Solving for p, Initial residual = 2.225352419891479e-07, Final residual = 2.215273138752713e-08, No Iterations 47
time step continuity errors : sum local = 2.837243995701537e-13, global = -2.499323235641295e-13, cumulative = 4.270779652382436e-09
smoothSolver:  Solving for omega, Initial residual = 3.882142259421778e-11, Final residual = 8.023960620259038e-12, No Iterations 1
smoothSolver:  Solving for k, Initial residual = 8.094614276128603e-09, Final residual = 5.796928494664355e-10, No Iterations 2
bounding k, min: 0 max: 0.02877210523326856 average: 0.001603711463781847
ExecutionTime = 181.59 s  ClockTime = 182 s

forceCoeffs forceCoeffs execute:
    Coefficients
        Cd       : 0.01847112157002896	(pressure: 0.01355362185072481	viscous: 0.004917499719304151)
        Cs       : 1.088130902645065e-21	(pressure: 2.236018290973133e-21	viscous: -1.147887388328069e-21)
        Cl       : 1.563280225319687	(pressure: 1.562892801876706	viscous: 0.0003874234429813393)
        CmRoll       : -1.563280225319687	(pressure: -1.562892801876706	viscous: -0.0003874234429813396)
        CmPitch       : -0.07836589017384257	(pressure: -0.07903938719264773	viscous: 0.0006734970188051622)
        CmYaw       : 0.01847112157002902	(pressure: 0.01355362185072487	viscous: 0.00491749971930415)
        Cd(f)    : -1.554044664534673
        Cd(r)    : 1.572515786104702
        Cs(f)    : 0.01847112157002902
        Cs(r)    : -0.01847112157002902
        Cl(f)    : 0.703274222486001
        Cl(r)    : 0.8600060028336861
Time = 514

smoothSolver:  Solving for Ux, Initial residual = 1.91356541883654e-07, Final residual = 6.399298912820115e-09, No Iterations 2
smoothSolver:  Solving for Uy, Initial residual = 8.521578410831824e-07, Final residual = 2.587885403866465e-08, No Iterations 2
GAMG:  Solving for p, Initial residual = 2.154388113063052e-07, Final residual = 2.138600936351966e-08, No Iterations 47
time step continuity errors : sum local = 2.739056248392099e-13, global = 2.404781765009812e-13, cumulative = 4.271020130558937e-09
smoothSolver:  Solving for omega, Initial residual = 3.864755898246274e-11, Final residual = 7.987960470601198e-12, No Iterations 1
smoothSolver:  Solving for k, Initial residual = 8.061730218025681e-09, Final residual = 5.77690171137931e-10, No Iterations 2
bounding k, min: 0 max: 0.02877405928432431 average: 0.001603035465714277
ExecutionTime = 181.96 s  ClockTime = 182 s

forceCoeffs forceCoeffs execute:
    Coefficients
        Cd       : 0.01845866728739883	(pressure: 0.01353934655382147	viscous: 0.004919320733577355)
        Cs       : 1.088179394578085e-21	(pressure: 2.23588675319685e-21	viscous: -1.147707358618765e-21)
        Cl       : 1.563289565077755	(pressure: 1.562902403372469	viscous: 0.0003871617052853882)
        CmRoll       : -1.563289565077755	(pressure: -1.56290240337247	viscous: -0.0003871617052853879)
        CmPitch       : -0.07835809160108964	(pressure: -0.07903179377025152	viscous: 0.0006737021691618803)
        CmYaw       : 0.01845866728739888	(pressure: 0.01353934655382152	viscous: 0.004919320733577355)
        Cd(f)    : -1.554060231434055
        Cd(r)    : 1.572518898721454
        Cs(f)    : 0.01845866728739888
        Cs(r)    : -0.01845866728739888
        Cl(f)    : 0.7032866909377877
        Cl(r)    : 0.860002874139967
Time = 515

smoothSolver:  Solving for Ux, Initial residual = 1.894597491309661e-07, Final residual = 6.460735692417178e-09, No Iterations 2
smoothSolver:  Solving for Uy, Initial residual = 8.343729738911363e-07, Final residual = 2.485870490848814e-08, No Iterations 2
GAMG:  Solving for p, Initial residual = 2.070194160931812e-07, Final residual = 2.058506895153757e-08, No Iterations 47
time step continuity errors : sum local = 2.636484032562709e-13, global = -2.320773798352748e-13, cumulative = 4.270788053179103e-09
smoothSolver:  Solving for omega, Initial residual = 3.847536064257306e-11, Final residual = 7.952069344422621e-12, No Iterations 1
smoothSolver:  Solving for k, Initial residual = 8.028924316790642e-09, Final residual = 5.756936328567905e-10, No Iterations 2
bounding k, min: 0 max: 0.02877597496699356 average: 0.001602362834613306
ExecutionTime = 182.35 s  ClockTime = 182 s

forceCoeffs forceCoeffs execute:
    Coefficients
        Cd       : 0.01844646589251974	(pressure: 0.01352532642688573	viscous: 0.004921139465634019)
        Cs       : 1.08822584854212e-21	(pressure: 2.235753461017355e-21	viscous: -1.147527612475235e-21)
        Cl       : 1.563298455097236	(pressure: 1.562911556349072	viscous: 0.0003868987481638175)
        CmRoll       : -1.563298455097236	(pressure: -1.562911556349073	viscous: -0.000386898748163818)
        CmPitch       : -0.07835025602964606	(pressure: -0.0790241627158251	viscous: 0.0006739066861790509)
        CmYaw       : 0.01844646589251974	(pressure: 0.01352532642688573	viscous: 0.004921139465634016)
        Cd(f)    : -1.554075222150977
        Cd(r)    : 1.572521688043496
        Cs(f)    : 0.01844646589251974
        Cs(r)    : -0.01844646589251974
        Cl(f)    : 0.703298971518972
        Cl(r)    : 0.8599994835782642
Time = 516

smoothSolver:  Solving for Ux, Initial residual = 1.878719736395419e-07, Final residual = 6.537352871024432e-09, No Iterations 2
smoothSolver:  Solving for Uy, Initial residual = 8.172649411300277e-07, Final residual = 2.39633653678198e-08, No Iterations 2
GAMG:  Solving for p, Initial residual = 2.00749626421452e-07, Final residual = 2.001182972463009e-08, No Iterations 48
time step continuity errors : sum local = 2.563072377250637e-13, global = -2.257313502676486e-13, cumulative = 4.270562321828835e-09
smoothSolver:  Solving for omega, Initial residual = 3.830574684556178e-11, Final residual = 7.916324917028807e-12, No Iterations 1
smoothSolver:  Solving for k, Initial residual = 7.996087386377792e-09, Final residual = 5.736814830436978e-10, No Iterations 2
bounding k, min: 0 max: 0.02877785228026514 average: 0.001601693445629975
ExecutionTime = 182.73 s  ClockTime = 183 s

forceCoeffs forceCoeffs execute:
    Coefficients
        Cd       : 0.01843459042957806	(pressure: 0.01351163460684798	viscous: 0.004922955822730082)
        Cs       : 1.088270760004767e-21	(pressure: 2.235618859246119e-21	viscous: -1.147348099241352e-21)
        Cl       : 1.56330694428419	(pressure: 1.562920309679382	viscous: 0.0003866346048080468)
        CmRoll       : -1.56330694428419	(pressure: -1.562920309679382	viscous: -0.0003866346048080469)
        CmPitch       : -0.0783424535231452	(pressure: -0.0790165640768464	viscous: 0.0006741105537012069)
        CmYaw       : 0.01843459042957812	(pressure: 0.01351163460684804	viscous: 0.00492295582273008)
        Cd(f)    : -1.554089649069401
        Cd(r)    : 1.572524239498979
        Cs(f)    : 0.01843459042957812
        Cs(r)    : -0.01843459042957812
        Cl(f)    : 0.7033110186189496
        Cl(r)    : 0.85999592566524
Time = 517

smoothSolver:  Solving for Ux, Initial residual = 1.861931739460252e-07, Final residual = 6.619473168635997e-09, No Iterations 2
smoothSolver:  Solving for Uy, Initial residual = 8.0109589550161e-07, Final residual = 2.31544932543763e-08, No Iterations 2
GAMG:  Solving for p, Initial residual = 1.958487221974441e-07, Final residual = 1.957754044220212e-08, No Iterations 47
time step continuity errors : sum local = 2.507454330693496e-13, global = 2.200072142161433e-13, cumulative = 4.270782329043051e-09
smoothSolver:  Solving for omega, Initial residual = 3.813739342074853e-11, Final residual = 7.880652715049496e-12, No Iterations 1
smoothSolver:  Solving for k, Initial residual = 7.963337851012536e-09, Final residual = 5.716614515004227e-10, No Iterations 2
bounding k, min: 0 max: 0.02877969123365783 average: 0.001601027189353473
ExecutionTime = 183.12 s  ClockTime = 183 s

forceCoeffs forceCoeffs execute:
    Coefficients
        Cd       : 0.01842308640999423	(pressure: 0.01349831675368687	viscous: 0.004924769656307357)
        Cs       : 1.088313350364458e-21	(pressure: 2.235482793855836e-21	viscous: -1.147169443491378e-21)
        Cl       : 1.563315120816121	(pressure: 1.562928751504019	viscous: 0.0003863693121018976)
        CmRoll       : -1.563315120816121	(pressure: -1.562928751504019	viscous: -0.0003863693121018974)
        CmPitch       : -0.07833472781155276	(pressure: -0.07900904157715906	viscous: 0.0006743137656063017)
        CmYaw       : 0.01842308640999434	(pressure: 0.01349831675368698	viscous: 0.004924769656307357)
        Cd(f)    : -1.554103577611124
        Cd(r)    : 1.572526664021118
        Cs(f)    : 0.01842308640999434
        Cs(r)    : -0.01842308640999434
        Cl(f)    : 0.7033228325965077
        Cl(r)    : 0.8599922882196132
Time = 518

smoothSolver:  Solving for Ux, Initial residual = 1.845914912131723e-07, Final residual = 6.708978172327758e-09, No Iterations 2
smoothSolver:  Solving for Uy, Initial residual = 7.856243121470909e-07, Final residual = 2.246221662621409e-08, No Iterations 2
GAMG:  Solving for p, Initial residual = 1.876703302843765e-07, Final residual = 1.868231185712143e-08, No Iterations 51
time step continuity errors : sum local = 2.392798166211354e-13, global = -2.112079366172258e-13, cumulative = 4.270571121106434e-09
smoothSolver:  Solving for omega, Initial residual = 3.79651296898179e-11, Final residual = 7.844914949817538e-12, No Iterations 1
smoothSolver:  Solving for k, Initial residual = 7.930491814800204e-09, Final residual = 5.696298932603548e-10, No Iterations 2
bounding k, min: 0 max: 0.02878149196632626 average: 0.001600363970310028
ExecutionTime = 183.54 s  ClockTime = 184 s


SIMPLE solution converged in 518 iterations

forceCoeffs forceCoeffs execute:
    Coefficients
        Cd       : 0.01841174237387392	(pressure: 0.01348516157012933	viscous: 0.004926580803744596)
        Cs       : 1.088356209381461e-21	(pressure: 2.235347402249398e-21	viscous: -1.146991192867937e-21)
        Cl       : 1.563322828170775	(pressure: 1.56293672527441	viscous: 0.0003861028963656773)
        CmRoll       : -1.563322828170775	(pressure: -1.56293672527441	viscous: -0.0003861028963656773)
        CmPitch       : -0.07832691150425211	(pressure: -0.07900142781365997	viscous: 0.0006745163094078593)
        CmYaw       : 0.01841174237387409	(pressure: 0.01348516157012949	viscous: 0.004926580803744595)
        Cd(f)    : -1.554116956983838
        Cd(r)    : 1.572528699357712
        Cs(f)    : 0.01841174237387409
        Cs(r)    : -0.01841174237387409
        Cl(f)    : 0.7033345025811355
        Cl(r)    : 0.8599883255896397
wallShearStress wallShearStress write:
    writing field wallShearStress
    min/max(airfoil) = (-0.007056858230781983 -0.009933422360850836 -5.380924862182772e-20), (0.001148877814610424 0.0004927071033250064 1.136775157375014e-19)
End

Finalising parallel run
